Setting datasheet to cace/sky130_ak_ip__cmos_vref.txt
Working directory set to cace/.. (/home/cmaier/EDA/efabless/chipalooza2024/sky130_ak_ip__cmos_vref)
Note: Parameter status changed from "skip" to "active".
Simulating parameter vbg_nom
Checking for out-of-date schematic-captured netlists.
Checking for out-of-date testbench netlist tb_vref_mc.spice.
Evaluating electrical parameter vbg_nom
Launching Simulations
Total files to simulate: 1
Note: Parameter status changed from "skip" to "active".
Simulating parameter vbgsc_nom
Checking for out-of-date schematic-captured netlists.
Checking for out-of-date testbench netlist tb_vref_mc.spice.
Evaluating electrical parameter vbgsc_nom
Launching Simulations
Total files to simulate: 1
Running: ngspice  ngspice/vbg_nom_1.spice
Current working directory is: /home/cmaier/EDA/efabless/chipalooza2024/sky130_ak_ip__cmos_vref
Warning: singular matrix:  check node x1.vena

Note: Starting dynamic gmin stepping
Warning: singular matrix:  check node x1.vena

Warning: Dynamic gmin stepping failed
Note: Starting true gmin stepping
Warning: singular matrix:  check node x1.vena

Warning: singular matrix:  check node x1.vena

Warning: singular matrix:  check node x1.vena

Warning: singular matrix:  check node x1.vena

Warning: True gmin stepping failed
Note: Starting source stepping
Warning: source stepping failed
Note: Transient op started
Note: Transient op finished successfully
******
** ngspice-42 : Circuit level simulation program
** Compiled with Sparse Direct Linear Solver
** The U. C. Berkeley CAD Group
** Copyright 1985-1994, Regents of the University of California.
** Copyright 2001-2023, The ngspice team.
** Please get your ngspice manual from https://ngspice.sourceforge.io/docs.html
** Please file your bug-reports at http://ngspice.sourceforge.net/bugrep.html
** Creation Date: Sun Mar 10 02:59:47 UTC 2024
******

Note: Compatibility modes selected: hs a


Circuit: ** sch_path: /home/cmaier/eda/efabless/chipalooza2024/sky130_ak_ip__cmos_vref/cace/tb_vref_mc.sch

option SCALE: Scale is set to 1e-06 for instance and model parameters
option SCALE: Scale is set to 1e-06 for instance and model parameters
option SCALE: Scale is set to 1e-06 for instance and model parameters
option SCALE: Scale is set to 1e-06 for instance and model parameters
iterations = 1.000000e+01
                                Constant values
                                constants  Sun Mar 10 02:59:47 UTC 2024
--------------------------------------------------------------------------------
Index   vref_data       
--------------------------------------------------------------------------------
0	0.000000e+00	
1	1.000000e+00	
2	2.000000e+00	
3	3.000000e+00	
4	4.000000e+00	
5	5.000000e+00	
6	6.000000e+00	
7	7.000000e+00	
8	8.000000e+00	
9	9.000000e+00	
Reset re-loads circuit ** sch_path: /home/cmaier/eda/efabless/chipalooza2024/sky130_ak_ip__cmos_vref/cace/tb_vref_mc.sch

Circuit: ** sch_path: /home/cmaier/eda/efabless/chipalooza2024/sky130_ak_ip__cmos_vref/cace/tb_vref_mc.sch

option SCALE: Scale is set to 1e-06 for instance and model parameters
option SCALE: Scale is set to 1e-06 for instance and model parameters
option SCALE: Scale is set to 1e-06 for instance and model parameters
option SCALE: Scale is set to 1e-06 for instance and model parameters
Doing analysis at TEMP = 27.000000 and TNOM = 27.000000

 Reference value :  0.00000e+00
Warning: singular matrix:  check node x1.vena

Note: Starting dynamic gmin stepping
Warning: singular matrix:  check node x1.vena

Warning: Dynamic gmin stepping failed
Note: Starting true gmin stepping
Warning: singular matrix:  check node x1.vena

Warning: singular matrix:  check node x1.vena

Warning: singular matrix:  check node x1.vena

Warning: singular matrix:  check node x1.vena

Warning: True gmin stepping failed
Note: Starting source stepping
Warning: source stepping failed
Note: Transient op started
Note: Transient op finished successfully
Warning: singular matrix:  check node x1.vena

Note: Starting dynamic gmin stepping
Warning: singular matrix:  check node x1.vena

Warning: Dynamic gmin stepping failed
Note: Starting true gmin stepping
Warning: singular matrix:  check node x1.vena

Warning: singular matrix:  check node x1.vena

Warning: singular matrix:  check node x1.vena

Warning: singular matrix:  check node x1.vena

Warning: True gmin stepping failed
Note: Starting source stepping
Warning: source stepping failed
Note: Transient op started
Note: Transient op finished successfully

No. of Data Rows : 1
Reset re-loads circuit ** sch_path: /home/cmaier/eda/efabless/chipalooza2024/sky130_ak_ip__cmos_vref/cace/tb_vref_mc.sch

Circuit: ** sch_path: /home/cmaier/eda/efabless/chipalooza2024/sky130_ak_ip__cmos_vref/cace/tb_vref_mc.sch

option SCALE: Scale is set to 1e-06 for instance and model parameters
option SCALE: Scale is set to 1e-06 for instance and model parameters
option SCALE: Scale is set to 1e-06 for instance and model parameters
option SCALE: Scale is set to 1e-06 for instance and model parameters
Doing analysis at TEMP = 27.000000 and TNOM = 27.000000


No. of Data Rows : 1
Reset re-loads circuit ** sch_path: /home/cmaier/eda/efabless/chipalooza2024/sky130_ak_ip__cmos_vref/cace/tb_vref_mc.sch

Circuit: ** sch_path: /home/cmaier/eda/efabless/chipalooza2024/sky130_ak_ip__cmos_vref/cace/tb_vref_mc.sch

option SCALE: Scale is set to 1e-06 for instance and model parameters
option SCALE: Scale is set to 1e-06 for instance and model parameters
option SCALE: Scale is set to 1e-06 for instance and model parameters
option SCALE: Scale is set to 1e-06 for instance and model parameters
Doing analysis at TEMP = 27.000000 and TNOM = 27.000000

 Reference value :  0.00000e+00
Warning: singular matrix:  check node x1.vena

Note: Starting dynamic gmin stepping
Warning: singular matrix:  check node x1.vena

Warning: Dynamic gmin stepping failed
Note: Starting true gmin stepping
Warning: singular matrix:  check node x1.vena

Warning: singular matrix:  check node x1.vena

Warning: singular matrix:  check node x1.vena

Warning: singular matrix:  check node x1.vena

Warning: True gmin stepping failed
Note: Starting source stepping
Warning: source stepping failed
Note: Transient op started
Note: Transient op finished successfully
Warning: singular matrix:  check node x1.vena

Note: Starting dynamic gmin stepping
Warning: singular matrix:  check node x1.vena

Warning: Dynamic gmin stepping failed
Note: Starting true gmin stepping
Warning: singular matrix:  check node x1.vena

Warning: singular matrix:  check node x1.vena

Warning: singular matrix:  check node x1.vena

Warning: singular matrix:  check node x1.vena

Warning: True gmin stepping failed
Note: Starting source stepping
Warning: source stepping failed
Note: Transient op started
Note: Transient op finished successfully

No. of Data Rows : 1
Reset re-loads circuit ** sch_path: /home/cmaier/eda/efabless/chipalooza2024/sky130_ak_ip__cmos_vref/cace/tb_vref_mc.sch

Circuit: ** sch_path: /home/cmaier/eda/efabless/chipalooza2024/sky130_ak_ip__cmos_vref/cace/tb_vref_mc.sch

option SCALE: Scale is set to 1e-06 for instance and model parameters
option SCALE: Scale is set to 1e-06 for instance and model parameters
option SCALE: Scale is set to 1e-06 for instance and model parameters
option SCALE: Scale is set to 1e-06 for instance and model parameters
Doing analysis at TEMP = 27.000000 and TNOM = 27.000000


No. of Data Rows : 1
Reset re-loads circuit ** sch_path: /home/cmaier/eda/efabless/chipalooza2024/sky130_ak_ip__cmos_vref/cace/tb_vref_mc.sch

Circuit: ** sch_path: /home/cmaier/eda/efabless/chipalooza2024/sky130_ak_ip__cmos_vref/cace/tb_vref_mc.sch

option SCALE: Scale is set to 1e-06 for instance and model parameters
option SCALE: Scale is set to 1e-06 for instance and model parameters
option SCALE: Scale is set to 1e-06 for instance and model parameters
option SCALE: Scale is set to 1e-06 for instance and model parameters
Doing analysis at TEMP = 27.000000 and TNOM = 27.000000

 Reference value :  0.00000e+00
Warning: singular matrix:  check node x1.vena

Note: Starting dynamic gmin stepping
Warning: singular matrix:  check node x1.vena

Warning: Dynamic gmin stepping failed
Note: Starting true gmin stepping
Warning: singular matrix:  check node x1.vena

Warning: singular matrix:  check node x1.vena

Warning: singular matrix:  check node x1.vena

Warning: singular matrix:  check node x1.vena

Warning: True gmin stepping failed
Note: Starting source stepping
Warning: source stepping failed
Note: Transient op started
Note: Transient op finished successfully
Warning: singular matrix:  check node x1.vena

Note: Starting dynamic gmin stepping
Warning: singular matrix:  check node x1.vena

Warning: Dynamic gmin stepping failed
Note: Starting true gmin stepping
Warning: singular matrix:  check node x1.vena

Warning: singular matrix:  check node x1.vena

Warning: singular matrix:  check node x1.vena

Warning: singular matrix:  check node x1.vena

Warning: True gmin stepping failed
Note: Starting source stepping
Warning: source stepping failed
Note: Transient op started
Note: Transient op finished successfully

No. of Data Rows : 1
Reset re-loads circuit ** sch_path: /home/cmaier/eda/efabless/chipalooza2024/sky130_ak_ip__cmos_vref/cace/tb_vref_mc.sch

Circuit: ** sch_path: /home/cmaier/eda/efabless/chipalooza2024/sky130_ak_ip__cmos_vref/cace/tb_vref_mc.sch

option SCALE: Scale is set to 1e-06 for instance and model parameters
option SCALE: Scale is set to 1e-06 for instance and model parameters
option SCALE: Scale is set to 1e-06 for instance and model parameters
option SCALE: Scale is set to 1e-06 for instance and model parameters
Doing analysis at TEMP = 27.000000 and TNOM = 27.000000


No. of Data Rows : 1
Reset re-loads circuit ** sch_path: /home/cmaier/eda/efabless/chipalooza2024/sky130_ak_ip__cmos_vref/cace/tb_vref_mc.sch

Circuit: ** sch_path: /home/cmaier/eda/efabless/chipalooza2024/sky130_ak_ip__cmos_vref/cace/tb_vref_mc.sch

option SCALE: Scale is set to 1e-06 for instance and model parameters
option SCALE: Scale is set to 1e-06 for instance and model parameters
option SCALE: Scale is set to 1e-06 for instance and model parameters
option SCALE: Scale is set to 1e-06 for instance and model parameters
Doing analysis at TEMP = 27.000000 and TNOM = 27.000000

 Reference value :  0.00000e+00
Warning: singular matrix:  check node x1.vena

Note: Starting dynamic gmin stepping
Warning: singular matrix:  check node x1.vena

Warning: Dynamic gmin stepping failed
Note: Starting true gmin stepping
Warning: singular matrix:  check node x1.vena

Warning: singular matrix:  check node x1.vena

Warning: singular matrix:  check node x1.vena

Warning: singular matrix:  check node x1.vena

Warning: True gmin stepping failed
Note: Starting source stepping
Warning: source stepping failed
Note: Transient op started
Note: Transient op finished successfully
Warning: singular matrix:  check node x1.vena

Note: Starting dynamic gmin stepping
Warning: singular matrix:  check node x1.vena

Warning: Dynamic gmin stepping failed
Note: Starting true gmin stepping
Warning: singular matrix:  check node x1.vena

Warning: singular matrix:  check node x1.vena

Warning: singular matrix:  check node x1.vena

Warning: singular matrix:  check node x1.vena

Warning: True gmin stepping failed
Note: Starting source stepping
Warning: source stepping failed
Note: Transient op started
Note: Transient op finished successfully

No. of Data Rows : 1
Reset re-loads circuit ** sch_path: /home/cmaier/eda/efabless/chipalooza2024/sky130_ak_ip__cmos_vref/cace/tb_vref_mc.sch

Circuit: ** sch_path: /home/cmaier/eda/efabless/chipalooza2024/sky130_ak_ip__cmos_vref/cace/tb_vref_mc.sch

option SCALE: Scale is set to 1e-06 for instance and model parameters
option SCALE: Scale is set to 1e-06 for instance and model parameters
option SCALE: Scale is set to 1e-06 for instance and model parameters
option SCALE: Scale is set to 1e-06 for instance and model parameters
Doing analysis at TEMP = 27.000000 and TNOM = 27.000000


No. of Data Rows : 1
Reset re-loads circuit ** sch_path: /home/cmaier/eda/efabless/chipalooza2024/sky130_ak_ip__cmos_vref/cace/tb_vref_mc.sch

Circuit: ** sch_path: /home/cmaier/eda/efabless/chipalooza2024/sky130_ak_ip__cmos_vref/cace/tb_vref_mc.sch

option SCALE: Scale is set to 1e-06 for instance and model parameters
option SCALE: Scale is set to 1e-06 for instance and model parameters
option SCALE: Scale is set to 1e-06 for instance and model parameters
option SCALE: Scale is set to 1e-06 for instance and model parameters
Doing analysis at TEMP = 27.000000 and TNOM = 27.000000

Note: Parameter status changed from "skip" to "active".
Simulating parameter Idd_enabled
 Reference value :  0.00000e+00
Warning: singular matrix:  check node x1.vena

Note: Starting dynamic gmin stepping
Warning: singular matrix:  check node x1.vena

Warning: Dynamic gmin stepping failed
Note: Starting true gmin stepping
Warning: singular matrix:  check node x1.vena

Warning: singular matrix:  check node x1.vena

Warning: singular matrix:  check node x1.vena

Warning: singular matrix:  check node x1.vena

Warning: True gmin stepping failed
Note: Starting source stepping
Warning: source stepping failed
Note: Transient op started
Note: Transient op finished successfully

No. of Data Rows : 1
Reset re-loads circuit ** sch_path: /home/cmaier/eda/efabless/chipalooza2024/sky130_ak_ip__cmos_vref/cace/tb_vref_mc.sch

Circuit: ** sch_path: /home/cmaier/eda/efabless/chipalooza2024/sky130_ak_ip__cmos_vref/cace/tb_vref_mc.sch

option SCALE: Scale is set to 1e-06 for instance and model parameters
option SCALE: Scale is set to 1e-06 for instance and model parameters
option SCALE: Scale is set to 1e-06 for instance and model parameters
option SCALE: Scale is set to 1e-06 for instance and model parameters
Doing analysis at TEMP = 27.000000 and TNOM = 27.000000


No. of Data Rows : 1
vref_mean = -9.65127e-05
ngspice-42 done
Files to simulate method vbg_nom: 1
Completed 1 of 1 simulations
Collating results
Running: ngspice  ngspice/vbgsc_nom_1.spice
Current working directory is: /home/cmaier/EDA/efabless/chipalooza2024/sky130_ak_ip__cmos_vref
Warning: singular matrix:  check node x1.vena

Note: Starting dynamic gmin stepping
Warning: singular matrix:  check node x1.vena

Warning: Dynamic gmin stepping failed
Note: Starting true gmin stepping
Warning: singular matrix:  check node x1.vena

Warning: singular matrix:  check node x1.vena

Warning: singular matrix:  check node x1.vena

Warning: singular matrix:  check node x1.vena

Warning: True gmin stepping failed
Note: Starting source stepping
Warning: source stepping failed
Note: Transient op started
Note: Transient op finished successfully
******
** ngspice-42 : Circuit level simulation program
** Compiled with Sparse Direct Linear Solver
** The U. C. Berkeley CAD Group
** Copyright 1985-1994, Regents of the University of California.
** Copyright 2001-2023, The ngspice team.
** Please get your ngspice manual from https://ngspice.sourceforge.io/docs.html
** Please file your bug-reports at http://ngspice.sourceforge.net/bugrep.html
** Creation Date: Sun Mar 10 02:59:47 UTC 2024
******

Note: Compatibility modes selected: hs a


Circuit: ** sch_path: /home/cmaier/eda/efabless/chipalooza2024/sky130_ak_ip__cmos_vref/cace/tb_vref_mc.sch

option SCALE: Scale is set to 1e-06 for instance and model parameters
option SCALE: Scale is set to 1e-06 for instance and model parameters
option SCALE: Scale is set to 1e-06 for instance and model parameters
option SCALE: Scale is set to 1e-06 for instance and model parameters
iterations = 1.000000e+01
                                Constant values
                                constants  Sun Mar 10 02:59:47 UTC 2024
--------------------------------------------------------------------------------
Index   vref_data       
--------------------------------------------------------------------------------
0	0.000000e+00	
1	1.000000e+00	
2	2.000000e+00	
3	3.000000e+00	
4	4.000000e+00	
5	5.000000e+00	
6	6.000000e+00	
7	7.000000e+00	
8	8.000000e+00	
9	9.000000e+00	
Reset re-loads circuit ** sch_path: /home/cmaier/eda/efabless/chipalooza2024/sky130_ak_ip__cmos_vref/cace/tb_vref_mc.sch

Circuit: ** sch_path: /home/cmaier/eda/efabless/chipalooza2024/sky130_ak_ip__cmos_vref/cace/tb_vref_mc.sch

option SCALE: Scale is set to 1e-06 for instance and model parameters
option SCALE: Scale is set to 1e-06 for instance and model parameters
option SCALE: Scale is set to 1e-06 for instance and model parameters
option SCALE: Scale is set to 1e-06 for instance and model parameters
Doing analysis at TEMP = 27.000000 and TNOM = 27.000000

 Reference value :  0.00000e+00
Warning: singular matrix:  check node x1.vena

Note: Starting dynamic gmin stepping
Warning: singular matrix:  check node x1.vena

Warning: Dynamic gmin stepping failed
Note: Starting true gmin stepping
Warning: singular matrix:  check node x1.vena

Warning: singular matrix:  check node x1.vena

Warning: singular matrix:  check node x1.vena

Warning: singular matrix:  check node x1.vena

Warning: True gmin stepping failed
Note: Starting source stepping
Warning: source stepping failed
Note: Transient op started
Note: Transient op finished successfully
Warning: singular matrix:  check node x1.vena

Note: Starting dynamic gmin stepping
Warning: singular matrix:  check node x1.vena

Warning: Dynamic gmin stepping failed
Note: Starting true gmin stepping
Warning: singular matrix:  check node x1.vena

Warning: singular matrix:  check node x1.vena

Warning: singular matrix:  check node x1.vena

Warning: singular matrix:  check node x1.vena

Warning: True gmin stepping failed
Note: Starting source stepping
Warning: source stepping failed
Note: Transient op started
Note: Transient op finished successfully

No. of Data Rows : 1
Reset re-loads circuit ** sch_path: /home/cmaier/eda/efabless/chipalooza2024/sky130_ak_ip__cmos_vref/cace/tb_vref_mc.sch

Circuit: ** sch_path: /home/cmaier/eda/efabless/chipalooza2024/sky130_ak_ip__cmos_vref/cace/tb_vref_mc.sch

option SCALE: Scale is set to 1e-06 for instance and model parameters
option SCALE: Scale is set to 1e-06 for instance and model parameters
option SCALE: Scale is set to 1e-06 for instance and model parameters
option SCALE: Scale is set to 1e-06 for instance and model parameters
Doing analysis at TEMP = 27.000000 and TNOM = 27.000000


No. of Data Rows : 1
Reset re-loads circuit ** sch_path: /home/cmaier/eda/efabless/chipalooza2024/sky130_ak_ip__cmos_vref/cace/tb_vref_mc.sch

Circuit: ** sch_path: /home/cmaier/eda/efabless/chipalooza2024/sky130_ak_ip__cmos_vref/cace/tb_vref_mc.sch

option SCALE: Scale is set to 1e-06 for instance and model parameters
option SCALE: Scale is set to 1e-06 for instance and model parameters
option SCALE: Scale is set to 1e-06 for instance and model parameters
option SCALE: Scale is set to 1e-06 for instance and model parameters
Doing analysis at TEMP = 27.000000 and TNOM = 27.000000

 Reference value :  0.00000e+00
Warning: singular matrix:  check node x1.vena

Note: Starting dynamic gmin stepping
Warning: singular matrix:  check node x1.vena

Warning: Dynamic gmin stepping failed
Note: Starting true gmin stepping
Warning: singular matrix:  check node x1.vena

Warning: singular matrix:  check node x1.vena

Warning: singular matrix:  check node x1.vena

Warning: singular matrix:  check node x1.vena

Warning: True gmin stepping failed
Note: Starting source stepping
Warning: source stepping failed
Note: Transient op started
Note: Transient op finished successfully
Warning: singular matrix:  check node x1.vena

Note: Starting dynamic gmin stepping
Warning: singular matrix:  check node x1.vena

Warning: Dynamic gmin stepping failed
Note: Starting true gmin stepping
Warning: singular matrix:  check node x1.vena

Warning: singular matrix:  check node x1.vena

Warning: singular matrix:  check node x1.vena

Warning: singular matrix:  check node x1.vena

Warning: True gmin stepping failed
Note: Starting source stepping
Warning: source stepping failed
Note: Transient op started
Note: Transient op finished successfully

No. of Data Rows : 1
Reset re-loads circuit ** sch_path: /home/cmaier/eda/efabless/chipalooza2024/sky130_ak_ip__cmos_vref/cace/tb_vref_mc.sch

Circuit: ** sch_path: /home/cmaier/eda/efabless/chipalooza2024/sky130_ak_ip__cmos_vref/cace/tb_vref_mc.sch

option SCALE: Scale is set to 1e-06 for instance and model parameters
option SCALE: Scale is set to 1e-06 for instance and model parameters
option SCALE: Scale is set to 1e-06 for instance and model parameters
option SCALE: Scale is set to 1e-06 for instance and model parameters
Doing analysis at TEMP = 27.000000 and TNOM = 27.000000


No. of Data Rows : 1
Reset re-loads circuit ** sch_path: /home/cmaier/eda/efabless/chipalooza2024/sky130_ak_ip__cmos_vref/cace/tb_vref_mc.sch

Circuit: ** sch_path: /home/cmaier/eda/efabless/chipalooza2024/sky130_ak_ip__cmos_vref/cace/tb_vref_mc.sch

option SCALE: Scale is set to 1e-06 for instance and model parameters
option SCALE: Scale is set to 1e-06 for instance and model parameters
option SCALE: Scale is set to 1e-06 for instance and model parameters
option SCALE: Scale is set to 1e-06 for instance and model parameters
Doing analysis at TEMP = 27.000000 and TNOM = 27.000000

 Reference value :  0.00000e+00
Warning: singular matrix:  check node x1.vena

Note: Starting dynamic gmin stepping
Warning: singular matrix:  check node x1.vena

Warning: Dynamic gmin stepping failed
Note: Starting true gmin stepping
Warning: singular matrix:  check node x1.vena

Warning: singular matrix:  check node x1.vena

Warning: singular matrix:  check node x1.vena

Warning: singular matrix:  check node x1.vena

Warning: True gmin stepping failed
Note: Starting source stepping
Warning: source stepping failed
Note: Transient op started
Note: Transient op finished successfully
Warning: singular matrix:  check node x1.vena

Note: Starting dynamic gmin stepping
Warning: singular matrix:  check node x1.vena

Warning: Dynamic gmin stepping failed
Note: Starting true gmin stepping
Warning: singular matrix:  check node x1.vena

Warning: singular matrix:  check node x1.vena

Warning: singular matrix:  check node x1.vena

Warning: singular matrix:  check node x1.vena

Warning: True gmin stepping failed
Note: Starting source stepping
Warning: source stepping failed
Note: Transient op started
Note: Transient op finished successfully

No. of Data Rows : 1
Reset re-loads circuit ** sch_path: /home/cmaier/eda/efabless/chipalooza2024/sky130_ak_ip__cmos_vref/cace/tb_vref_mc.sch

Circuit: ** sch_path: /home/cmaier/eda/efabless/chipalooza2024/sky130_ak_ip__cmos_vref/cace/tb_vref_mc.sch

option SCALE: Scale is set to 1e-06 for instance and model parameters
option SCALE: Scale is set to 1e-06 for instance and model parameters
option SCALE: Scale is set to 1e-06 for instance and model parameters
option SCALE: Scale is set to 1e-06 for instance and model parameters
Doing analysis at TEMP = 27.000000 and TNOM = 27.000000


No. of Data Rows : 1
Reset re-loads circuit ** sch_path: /home/cmaier/eda/efabless/chipalooza2024/sky130_ak_ip__cmos_vref/cace/tb_vref_mc.sch

Circuit: ** sch_path: /home/cmaier/eda/efabless/chipalooza2024/sky130_ak_ip__cmos_vref/cace/tb_vref_mc.sch

option SCALE: Scale is set to 1e-06 for instance and model parameters
option SCALE: Scale is set to 1e-06 for instance and model parameters
option SCALE: Scale is set to 1e-06 for instance and model parameters
option SCALE: Scale is set to 1e-06 for instance and model parameters
Doing analysis at TEMP = 27.000000 and TNOM = 27.000000

 Reference value :  0.00000e+00
Warning: singular matrix:  check node x1.vena

Note: Starting dynamic gmin stepping
Warning: singular matrix:  check node x1.vena

Warning: Dynamic gmin stepping failed
Note: Starting true gmin stepping
Warning: singular matrix:  check node x1.vena

Warning: singular matrix:  check node x1.vena

Warning: singular matrix:  check node x1.vena

Warning: singular matrix:  check node x1.vena

Warning: True gmin stepping failed
Note: Starting source stepping
Warning: source stepping failed
Note: Transient op started
Note: Transient op finished successfully
Checking for out-of-date schematic-captured netlists.
Checking for out-of-date testbench netlist tb_power.spice.
Evaluating electrical parameter Idd_enabled
Launching Simulations
Total files to simulate: 27
Warning: singular matrix:  check node x1.vena

Note: Starting dynamic gmin stepping
Warning: singular matrix:  check node x1.vena

Warning: Dynamic gmin stepping failed
Note: Starting true gmin stepping
Warning: singular matrix:  check node x1.vena

Warning: singular matrix:  check node x1.vena

Warning: singular matrix:  check node x1.vena

Warning: singular matrix:  check node x1.vena

Warning: True gmin stepping failed
Note: Starting source stepping
Warning: source stepping failed
Note: Transient op started
Note: Transient op finished successfully

No. of Data Rows : 1
Reset re-loads circuit ** sch_path: /home/cmaier/eda/efabless/chipalooza2024/sky130_ak_ip__cmos_vref/cace/tb_vref_mc.sch

Circuit: ** sch_path: /home/cmaier/eda/efabless/chipalooza2024/sky130_ak_ip__cmos_vref/cace/tb_vref_mc.sch

option SCALE: Scale is set to 1e-06 for instance and model parameters
option SCALE: Scale is set to 1e-06 for instance and model parameters
option SCALE: Scale is set to 1e-06 for instance and model parameters
option SCALE: Scale is set to 1e-06 for instance and model parameters
Doing analysis at TEMP = 27.000000 and TNOM = 27.000000


No. of Data Rows : 1
Reset re-loads circuit ** sch_path: /home/cmaier/eda/efabless/chipalooza2024/sky130_ak_ip__cmos_vref/cace/tb_vref_mc.sch

Circuit: ** sch_path: /home/cmaier/eda/efabless/chipalooza2024/sky130_ak_ip__cmos_vref/cace/tb_vref_mc.sch

option SCALE: Scale is set to 1e-06 for instance and model parameters
option SCALE: Scale is set to 1e-06 for instance and model parameters
option SCALE: Scale is set to 1e-06 for instance and model parameters
option SCALE: Scale is set to 1e-06 for instance and model parameters
Doing analysis at TEMP = 27.000000 and TNOM = 27.000000

 Reference value :  0.00000e+00
Warning: singular matrix:  check node x1.vena

Note: Starting dynamic gmin stepping
Warning: singular matrix:  check node x1.vena

Warning: Dynamic gmin stepping failed
Note: Starting true gmin stepping
Warning: singular matrix:  check node x1.vena

Warning: singular matrix:  check node x1.vena

Warning: singular matrix:  check node x1.vena

Warning: singular matrix:  check node x1.vena

Warning: True gmin stepping failed
Note: Starting source stepping
Warning: source stepping failed
Note: Transient op started
Note: Transient op finished successfully

No. of Data Rows : 1
Reset re-loads circuit ** sch_path: /home/cmaier/eda/efabless/chipalooza2024/sky130_ak_ip__cmos_vref/cace/tb_vref_mc.sch

Circuit: ** sch_path: /home/cmaier/eda/efabless/chipalooza2024/sky130_ak_ip__cmos_vref/cace/tb_vref_mc.sch

option SCALE: Scale is set to 1e-06 for instance and model parameters
option SCALE: Scale is set to 1e-06 for instance and model parameters
option SCALE: Scale is set to 1e-06 for instance and model parameters
option SCALE: Scale is set to 1e-06 for instance and model parameters
Doing analysis at TEMP = 27.000000 and TNOM = 27.000000

 Reference value :  0.00000e+00
No. of Data Rows : 1
vref_mean = -6.05011e-05
ngspice-42 done
Files to simulate method vbgsc_nom: 1
Completed 1 of 1 simulations
Collating results
Running: ngspice  ngspice/Idd_enabled_1.spice
Current working directory is: /home/cmaier/EDA/efabless/chipalooza2024/sky130_ak_ip__cmos_vref
Warning: singular matrix:  check node x1.vena

Note: Starting dynamic gmin stepping
Running: ngspice  ngspice/Idd_enabled_2.spice
Current working directory is: /home/cmaier/EDA/efabless/chipalooza2024/sky130_ak_ip__cmos_vref
Warning: singular matrix:  check node x1.vena

Note: Starting dynamic gmin stepping
Running: ngspice  ngspice/Idd_enabled_7.spice
Current working directory is: /home/cmaier/EDA/efabless/chipalooza2024/sky130_ak_ip__cmos_vref
Warning: singular matrix:  check node x1.vena

Note: Starting dynamic gmin stepping
Warning: singular matrix:  check node x1.vena

Warning: Dynamic gmin stepping failed
Note: Starting true gmin stepping
Warning: singular matrix:  check node x1.vena

Warning: singular matrix:  check node x1.vena

Warning: singular matrix:  check node x1.vena

Warning: singular matrix:  check node x1.vena

Warning: True gmin stepping failed
Note: Starting source stepping
Warning: source stepping failed
Note: Transient op started
Note: Transient op finished successfully
******
** ngspice-42 : Circuit level simulation program
** Compiled with Sparse Direct Linear Solver
** The U. C. Berkeley CAD Group
** Copyright 1985-1994, Regents of the University of California.
** Copyright 2001-2023, The ngspice team.
** Please get your ngspice manual from https://ngspice.sourceforge.io/docs.html
** Please file your bug-reports at http://ngspice.sourceforge.net/bugrep.html
** Creation Date: Sun Mar 10 02:59:47 UTC 2024
******

Note: Compatibility modes selected: hs a


Circuit: ** sch_path: /home/cmaier/eda/efabless/chipalooza2024/sky130_ak_ip__cmos_vref/cace/tb_power.sch

option SCALE: Scale is set to 1e-06 for instance and model parameters
option SCALE: Scale is set to 1e-06 for instance and model parameters
option SCALE: Scale is set to 1e-06 for instance and model parameters
option SCALE: Scale is set to 1e-06 for instance and model parameters
Doing analysis at TEMP = -40.000000 and TNOM = 27.000000

 Reference value :  0.00000e+00
No. of Data Rows : 1
i(vmeas_ana) = 0.000000e+00
i(vmeas_dig) = 0.000000e+00
i(vavdd) = -9.29767e-06
ngspice-42 done
Warning: singular matrix:  check node x1.vena

Warning: Dynamic gmin stepping failed
Note: Starting true gmin stepping
Warning: singular matrix:  check node x1.vena

Warning: singular matrix:  check node x1.vena

Warning: singular matrix:  check node x1.vena

Warning: singular matrix:  check node x1.vena

Warning: True gmin stepping failed
Note: Starting source stepping
Warning: source stepping failed
Note: Transient op started
Warning: singular matrix:  check node x1.vena

Warning: Dynamic gmin stepping failed
Note: Starting true gmin stepping
Warning: singular matrix:  check node x1.vena

Warning: singular matrix:  check node x1.vena

Warning: singular matrix:  check node x1.vena

Warning: singular matrix:  check node x1.vena

Warning: True gmin stepping failed
Note: Starting source stepping
Warning: source stepping failed
Note: Transient op started
Note: Transient op finished successfully
******
** ngspice-42 : Circuit level simulation program
** Compiled with Sparse Direct Linear Solver
** The U. C. Berkeley CAD Group
** Copyright 1985-1994, Regents of the University of California.
** Copyright 2001-2023, The ngspice team.
** Please get your ngspice manual from https://ngspice.sourceforge.io/docs.html
** Please file your bug-reports at http://ngspice.sourceforge.net/bugrep.html
** Creation Date: Sun Mar 10 02:59:47 UTC 2024
******

Note: Compatibility modes selected: hs a


Circuit: ** sch_path: /home/cmaier/eda/efabless/chipalooza2024/sky130_ak_ip__cmos_vref/cace/tb_power.sch

option SCALE: Scale is set to 1e-06 for instance and model parameters
option SCALE: Scale is set to 1e-06 for instance and model parameters
option SCALE: Scale is set to 1e-06 for instance and model parameters
option SCALE: Scale is set to 1e-06 for instance and model parameters
Doing analysis at TEMP = -40.000000 and TNOM = 27.000000

 Reference value :  0.00000e+00
No. of Data Rows : 1
i(vmeas_ana) = 0.000000e+00
i(vmeas_dig) = 0.000000e+00
i(vavdd) = 1.045382e-05
ngspice-42 done
Running: ngspice  ngspice/Idd_enabled_3.spice
Current working directory is: /home/cmaier/EDA/efabless/chipalooza2024/sky130_ak_ip__cmos_vref
Warning: singular matrix:  check node x1.vena

Note: Starting dynamic gmin stepping
Running: ngspice  ngspice/Idd_enabled_6.spice
Current working directory is: /home/cmaier/EDA/efabless/chipalooza2024/sky130_ak_ip__cmos_vref
Warning: singular matrix:  check node x1.vena

Note: Starting dynamic gmin stepping
Running: ngspice  ngspice/Idd_enabled_5.spice
Current working directory is: /home/cmaier/EDA/efabless/chipalooza2024/sky130_ak_ip__cmos_vref
Warning: singular matrix:  check node x1.vena

Note: Starting dynamic gmin stepping
Note: Transient op finished successfully
******
** ngspice-42 : Circuit level simulation program
** Compiled with Sparse Direct Linear Solver
** The U. C. Berkeley CAD Group
** Copyright 1985-1994, Regents of the University of California.
** Copyright 2001-2023, The ngspice team.
** Please get your ngspice manual from https://ngspice.sourceforge.io/docs.html
** Please file your bug-reports at http://ngspice.sourceforge.net/bugrep.html
** Creation Date: Sun Mar 10 02:59:47 UTC 2024
******

Note: Compatibility modes selected: hs a


Circuit: ** sch_path: /home/cmaier/eda/efabless/chipalooza2024/sky130_ak_ip__cmos_vref/cace/tb_power.sch

option SCALE: Scale is set to 1e-06 for instance and model parameters
option SCALE: Scale is set to 1e-06 for instance and model parameters
option SCALE: Scale is set to 1e-06 for instance and model parameters
option SCALE: Scale is set to 1e-06 for instance and model parameters
Doing analysis at TEMP = 85.000000 and TNOM = 27.000000

 Reference value :  0.00000e+00
No. of Data Rows : 1
i(vmeas_ana) = 0.000000e+00
i(vmeas_dig) = 0.000000e+00
i(vavdd) = -8.61331e-06
ngspice-42 done
Warning: singular matrix:  check node x1.vena

Warning: Dynamic gmin stepping failed
Note: Starting true gmin stepping
Warning: singular matrix:  check node x1.vena

Warning: singular matrix:  check node x1.vena

Warning: singular matrix:  check node x1.vena

Warning: singular matrix:  check node x1.vena

Warning: True gmin stepping failed
Note: Starting source stepping
Warning: source stepping failed
Note: Transient op started
Note: Transient op finished successfully
******
** ngspice-42 : Circuit level simulation program
** Compiled with Sparse Direct Linear Solver
** The U. C. Berkeley CAD Group
** Copyright 1985-1994, Regents of the University of California.
** Copyright 2001-2023, The ngspice team.
** Please get your ngspice manual from https://ngspice.sourceforge.io/docs.html
** Please file your bug-reports at http://ngspice.sourceforge.net/bugrep.html
** Creation Date: Sun Mar 10 02:59:47 UTC 2024
******

Note: Compatibility modes selected: hs a


Circuit: ** sch_path: /home/cmaier/eda/efabless/chipalooza2024/sky130_ak_ip__cmos_vref/cace/tb_power.sch

option SCALE: Scale is set to 1e-06 for instance and model parameters
option SCALE: Scale is set to 1e-06 for instance and model parameters
option SCALE: Scale is set to 1e-06 for instance and model parameters
option SCALE: Scale is set to 1e-06 for instance and model parameters
Doing analysis at TEMP = -40.000000 and TNOM = 27.000000

Running: ngspice  ngspice/Idd_enabled_4.spice
Current working directory is: /home/cmaier/EDA/efabless/chipalooza2024/sky130_ak_ip__cmos_vref
Warning: singular matrix:  check node x1.vena

Note: Starting dynamic gmin stepping
 Reference value :  0.00000e+00
No. of Data Rows : 1
i(vmeas_ana) = 0.000000e+00
i(vmeas_dig) = 0.000000e+00
i(vavdd) = 1.156937e-05
ngspice-42 done
Warning: singular matrix:  check node x1.vena

Warning: Dynamic gmin stepping failed
Note: Starting true gmin stepping
Warning: singular matrix:  check node x1.vena

Warning: singular matrix:  check node x1.vena

Warning: singular matrix:  check node x1.vena

Warning: singular matrix:  check node x1.vena

Warning: True gmin stepping failed
Note: Starting source stepping
Warning: source stepping failed
Note: Transient op started
Note: Transient op finished successfully
******
** ngspice-42 : Circuit level simulation program
** Compiled with Sparse Direct Linear Solver
** The U. C. Berkeley CAD Group
** Copyright 1985-1994, Regents of the University of California.
** Copyright 2001-2023, The ngspice team.
** Please get your ngspice manual from https://ngspice.sourceforge.io/docs.html
** Please file your bug-reports at http://ngspice.sourceforge.net/bugrep.html
** Creation Date: Sun Mar 10 02:59:47 UTC 2024
******

Note: Compatibility modes selected: hs a


Circuit: ** sch_path: /home/cmaier/eda/efabless/chipalooza2024/sky130_ak_ip__cmos_vref/cace/tb_power.sch

option SCALE: Scale is set to 1e-06 for instance and model parameters
option SCALE: Scale is set to 1e-06 for instance and model parameters
option SCALE: Scale is set to 1e-06 for instance and model parameters
option SCALE: Scale is set to 1e-06 for instance and model parameters
Doing analysis at TEMP = 27.000000 and TNOM = 27.000000

 Reference value :  0.00000e+00
No. of Data Rows : 1
i(vmeas_ana) = 0.000000e+00
i(vmeas_dig) = 0.000000e+00
i(vavdd) = -9.62578e-06
ngspice-42 done
Warning: singular matrix:  check node x1.vena

Warning: Dynamic gmin stepping failed
Note: Starting true gmin stepping
Warning: singular matrix:  check node x1.vena

Warning: singular matrix:  check node x1.vena

Warning: singular matrix:  check node x1.vena

Warning: singular matrix:  check node x1.vena

Warning: True gmin stepping failed
Note: Starting source stepping
Warning: singular matrix:  check node x1.vena

Warning: Dynamic gmin stepping failed
Note: Starting true gmin stepping
Warning: singular matrix:  check node x1.vena

Warning: singular matrix:  check node x1.vena

Warning: singular matrix:  check node x1.vena

Warning: singular matrix:  check node x1.vena

Warning: True gmin stepping failed
Note: Starting source stepping
Warning: source stepping failed
Note: Transient op started
Warning: source stepping failed
Note: Transient op started
Note: Transient op finished successfully
******
** ngspice-42 : Circuit level simulation program
** Compiled with Sparse Direct Linear Solver
** The U. C. Berkeley CAD Group
** Copyright 1985-1994, Regents of the University of California.
** Copyright 2001-2023, The ngspice team.
** Please get your ngspice manual from https://ngspice.sourceforge.io/docs.html
** Please file your bug-reports at http://ngspice.sourceforge.net/bugrep.html
** Creation Date: Sun Mar 10 02:59:47 UTC 2024
******

Note: Compatibility modes selected: hs a


Circuit: ** sch_path: /home/cmaier/eda/efabless/chipalooza2024/sky130_ak_ip__cmos_vref/cace/tb_power.sch

option SCALE: Scale is set to 1e-06 for instance and model parameters
option SCALE: Scale is set to 1e-06 for instance and model parameters
option SCALE: Scale is set to 1e-06 for instance and model parameters
option SCALE: Scale is set to 1e-06 for instance and model parameters
Doing analysis at TEMP = 27.000000 and TNOM = 27.000000

 Reference value :  0.00000e+00
No. of Data Rows : 1
i(vmeas_ana) = 0.000000e+00
i(vmeas_dig) = 0.000000e+00
i(vavdd) = -8.57388e-06
ngspice-42 done
Note: Transient op finished successfully
******
** ngspice-42 : Circuit level simulation program
** Compiled with Sparse Direct Linear Solver
** The U. C. Berkeley CAD Group
** Copyright 1985-1994, Regents of the University of California.
** Copyright 2001-2023, The ngspice team.
** Please get your ngspice manual from https://ngspice.sourceforge.io/docs.html
** Please file your bug-reports at http://ngspice.sourceforge.net/bugrep.html
** Creation Date: Sun Mar 10 02:59:47 UTC 2024
******

Note: Compatibility modes selected: hs a


Circuit: ** sch_path: /home/cmaier/eda/efabless/chipalooza2024/sky130_ak_ip__cmos_vref/cace/tb_power.sch

option SCALE: Scale is set to 1e-06 for instance and model parameters
option SCALE: Scale is set to 1e-06 for instance and model parameters
option SCALE: Scale is set to 1e-06 for instance and model parameters
option SCALE: Scale is set to 1e-06 for instance and model parameters
Doing analysis at TEMP = 27.000000 and TNOM = 27.000000

 Reference value :  0.00000e+00
No. of Data Rows : 1
i(vmeas_ana) = 0.000000e+00
i(vmeas_dig) = 0.000000e+00
i(vavdd) = 1.054262e-05
ngspice-42 done
Running: ngspice  ngspice/Idd_enabled_9.spice
Current working directory is: /home/cmaier/EDA/efabless/chipalooza2024/sky130_ak_ip__cmos_vref
Warning: singular matrix:  check node x1.vena

Note: Starting dynamic gmin stepping
Running: ngspice  ngspice/Idd_enabled_12.spice
Current working directory is: /home/cmaier/EDA/efabless/chipalooza2024/sky130_ak_ip__cmos_vref
Warning: singular matrix:  check node x1.vena

Note: Starting dynamic gmin stepping
Running: ngspice  ngspice/Idd_enabled_8.spice
Current working directory is: /home/cmaier/EDA/efabless/chipalooza2024/sky130_ak_ip__cmos_vref
Warning: singular matrix:  check node x1.vena

Note: Starting dynamic gmin stepping
Warning: singular matrix:  check node x1.vena

Warning: Dynamic gmin stepping failed
Note: Starting true gmin stepping
Warning: singular matrix:  check node x1.vena

Warning: singular matrix:  check node x1.vena

Warning: singular matrix:  check node x1.vena

Warning: singular matrix:  check node x1.vena

Warning: True gmin stepping failed
Note: Starting source stepping
Warning: source stepping failed
Note: Transient op started
Running: ngspice  ngspice/Idd_enabled_11.spice
Current working directory is: /home/cmaier/EDA/efabless/chipalooza2024/sky130_ak_ip__cmos_vref
Warning: singular matrix:  check node x1.vena

Note: Starting dynamic gmin stepping
Warning: singular matrix:  check node x1.vena

Warning: Dynamic gmin stepping failed
Note: Starting true gmin stepping
Warning: singular matrix:  check node x1.vena

Warning: singular matrix:  check node x1.vena

Warning: singular matrix:  check node x1.vena

Warning: singular matrix:  check node x1.vena

Warning: True gmin stepping failed
Note: Starting source stepping
Warning: source stepping failed
Note: Transient op started
Warning: singular matrix:  check node x1.vena

Warning: Dynamic gmin stepping failed
Note: Starting true gmin stepping
Warning: singular matrix:  check node x1.vena

Warning: singular matrix:  check node x1.vena

Warning: singular matrix:  check node x1.vena

Warning: singular matrix:  check node x1.vena

Warning: True gmin stepping failed
Note: Starting source stepping
Warning: source stepping failed
Note: Transient op started
Running: ngspice  ngspice/Idd_enabled_10.spice
Current working directory is: /home/cmaier/EDA/efabless/chipalooza2024/sky130_ak_ip__cmos_vref
Warning: singular matrix:  check node x1.vena

Note: Starting dynamic gmin stepping
Note: Transient op finished successfully
******
** ngspice-42 : Circuit level simulation program
** Compiled with Sparse Direct Linear Solver
** The U. C. Berkeley CAD Group
** Copyright 1985-1994, Regents of the University of California.
** Copyright 2001-2023, The ngspice team.
** Please get your ngspice manual from https://ngspice.sourceforge.io/docs.html
** Please file your bug-reports at http://ngspice.sourceforge.net/bugrep.html
** Creation Date: Sun Mar 10 02:59:47 UTC 2024
******

Note: Compatibility modes selected: hs a


Circuit: ** sch_path: /home/cmaier/eda/efabless/chipalooza2024/sky130_ak_ip__cmos_vref/cace/tb_power.sch

option SCALE: Scale is set to 1e-06 for instance and model parameters
option SCALE: Scale is set to 1e-06 for instance and model parameters
option SCALE: Scale is set to 1e-06 for instance and model parameters
option SCALE: Scale is set to 1e-06 for instance and model parameters
Doing analysis at TEMP = 85.000000 and TNOM = 27.000000

Warning: singular matrix:  check node x1.vena

Warning: Dynamic gmin stepping failed
Note: Starting true gmin stepping
 Reference value :  0.00000e+00
No. of Data Rows : 1
i(vmeas_ana) = 0.000000e+00
i(vmeas_dig) = 0.000000e+00
i(vavdd) = -9.69844e-06
ngspice-42 done
Warning: singular matrix:  check node x1.vena

Warning: singular matrix:  check node x1.vena

Warning: singular matrix:  check node x1.vena

Warning: singular matrix:  check node x1.vena

Warning: singular matrix:  check node x1.vena

Warning: Dynamic gmin stepping failed
Note: Starting true gmin stepping
Warning: True gmin stepping failed
Note: Starting source stepping
Warning: singular matrix:  check node x1.vena

Note: Transient op finished successfully
Warning: singular matrix:  check node x1.vena

Warning: singular matrix:  check node x1.vena

******
** ngspice-42 : Circuit level simulation program
** Compiled with Sparse Direct Linear Solver
** The U. C. Berkeley CAD Group
** Copyright 1985-1994, Regents of the University of California.
** Copyright 2001-2023, The ngspice team.
** Please get your ngspice manual from https://ngspice.sourceforge.io/docs.html
** Please file your bug-reports at http://ngspice.sourceforge.net/bugrep.html
** Creation Date: Sun Mar 10 02:59:47 UTC 2024
******

Note: Compatibility modes selected: hs a


Circuit: ** sch_path: /home/cmaier/eda/efabless/chipalooza2024/sky130_ak_ip__cmos_vref/cace/tb_power.sch

option SCALE: Scale is set to 1e-06 for instance and model parameters
option SCALE: Scale is set to 1e-06 for instance and model parameters
option SCALE: Scale is set to 1e-06 for instance and model parameters
option SCALE: Scale is set to 1e-06 for instance and model parameters
Doing analysis at TEMP = 85.000000 and TNOM = 27.000000

Warning: singular matrix:  check node x1.vena

Warning: True gmin stepping failed
Note: Starting source stepping
Warning: source stepping failed
Note: Transient op started
Warning: source stepping failed
Note: Transient op started
 Reference value :  0.00000e+00
No. of Data Rows : 1
i(vmeas_ana) = 0.000000e+00
i(vmeas_dig) = 0.000000e+00
i(vavdd) = -1.08552e-05
ngspice-42 done
Note: Transient op finished successfully
******
** ngspice-42 : Circuit level simulation program
** Compiled with Sparse Direct Linear Solver
** The U. C. Berkeley CAD Group
** Copyright 1985-1994, Regents of the University of California.
** Copyright 2001-2023, The ngspice team.
** Please get your ngspice manual from https://ngspice.sourceforge.io/docs.html
** Please file your bug-reports at http://ngspice.sourceforge.net/bugrep.html
** Creation Date: Sun Mar 10 02:59:47 UTC 2024
******

Note: Compatibility modes selected: hs a


Circuit: ** sch_path: /home/cmaier/eda/efabless/chipalooza2024/sky130_ak_ip__cmos_vref/cace/tb_power.sch

option SCALE: Scale is set to 1e-06 for instance and model parameters
option SCALE: Scale is set to 1e-06 for instance and model parameters
option SCALE: Scale is set to 1e-06 for instance and model parameters
option SCALE: Scale is set to 1e-06 for instance and model parameters
Doing analysis at TEMP = -40.000000 and TNOM = 27.000000

 Reference value :  0.00000e+00
No. of Data Rows : 1
i(vmeas_ana) = 0.000000e+00
i(vmeas_dig) = 0.000000e+00
i(vavdd) = -1.13639e-05
ngspice-42 done
Note: Transient op finished successfully
******
** ngspice-42 : Circuit level simulation program
** Compiled with Sparse Direct Linear Solver
** The U. C. Berkeley CAD Group
** Copyright 1985-1994, Regents of the University of California.
** Copyright 2001-2023, The ngspice team.
** Please get your ngspice manual from https://ngspice.sourceforge.io/docs.html
** Please file your bug-reports at http://ngspice.sourceforge.net/bugrep.html
** Creation Date: Sun Mar 10 02:59:47 UTC 2024
******

Note: Compatibility modes selected: hs a


Circuit: ** sch_path: /home/cmaier/eda/efabless/chipalooza2024/sky130_ak_ip__cmos_vref/cace/tb_power.sch

option SCALE: Scale is set to 1e-06 for instance and model parameters
option SCALE: Scale is set to 1e-06 for instance and model parameters
option SCALE: Scale is set to 1e-06 for instance and model parameters
option SCALE: Scale is set to 1e-06 for instance and model parameters
Doing analysis at TEMP = -40.000000 and TNOM = 27.000000

 Reference value :  0.00000e+00
No. of Data Rows : 1
i(vmeas_ana) = 0.000000e+00
i(vmeas_dig) = 0.000000e+00
i(vavdd) = -1.03378e-05
ngspice-42 done
Note: Transient op finished successfully
******
** ngspice-42 : Circuit level simulation program
** Compiled with Sparse Direct Linear Solver
** The U. C. Berkeley CAD Group
** Copyright 1985-1994, Regents of the University of California.
** Copyright 2001-2023, The ngspice team.
** Please get your ngspice manual from https://ngspice.sourceforge.io/docs.html
** Please file your bug-reports at http://ngspice.sourceforge.net/bugrep.html
** Creation Date: Sun Mar 10 02:59:47 UTC 2024
******

Note: Compatibility modes selected: hs a


Circuit: ** sch_path: /home/cmaier/eda/efabless/chipalooza2024/sky130_ak_ip__cmos_vref/cace/tb_power.sch

option SCALE: Scale is set to 1e-06 for instance and model parameters
option SCALE: Scale is set to 1e-06 for instance and model parameters
option SCALE: Scale is set to 1e-06 for instance and model parameters
option SCALE: Scale is set to 1e-06 for instance and model parameters
Doing analysis at TEMP = -40.000000 and TNOM = 27.000000

 Reference value :  0.00000e+00
No. of Data Rows : 1
i(vmeas_ana) = 0.000000e+00
i(vmeas_dig) = 0.000000e+00
i(vavdd) = -9.15678e-06
ngspice-42 done
Running: ngspice  ngspice/Idd_enabled_14.spice
Current working directory is: /home/cmaier/EDA/efabless/chipalooza2024/sky130_ak_ip__cmos_vref
Warning: singular matrix:  check node x1.vena

Note: Starting dynamic gmin stepping
Warning: singular matrix:  check node x1.vena

Warning: Dynamic gmin stepping failed
Note: Starting true gmin stepping
Warning: singular matrix:  check node x1.vena

Warning: singular matrix:  check node x1.vena

Warning: singular matrix:  check node x1.vena

Warning: singular matrix:  check node x1.vena

Warning: True gmin stepping failed
Note: Starting source stepping
Warning: source stepping failed
Note: Transient op started
Running: ngspice  ngspice/Idd_enabled_13.spice
Current working directory is: /home/cmaier/EDA/efabless/chipalooza2024/sky130_ak_ip__cmos_vref
Warning: singular matrix:  check node x1.vena

Note: Starting dynamic gmin stepping
Note: Transient op finished successfully
******
** ngspice-42 : Circuit level simulation program
** Compiled with Sparse Direct Linear Solver
** The U. C. Berkeley CAD Group
** Copyright 1985-1994, Regents of the University of California.
** Copyright 2001-2023, The ngspice team.
** Please get your ngspice manual from https://ngspice.sourceforge.io/docs.html
** Please file your bug-reports at http://ngspice.sourceforge.net/bugrep.html
** Creation Date: Sun Mar 10 02:59:47 UTC 2024
******

Note: Compatibility modes selected: hs a


Circuit: ** sch_path: /home/cmaier/eda/efabless/chipalooza2024/sky130_ak_ip__cmos_vref/cace/tb_power.sch

option SCALE: Scale is set to 1e-06 for instance and model parameters
option SCALE: Scale is set to 1e-06 for instance and model parameters
option SCALE: Scale is set to 1e-06 for instance and model parameters
option SCALE: Scale is set to 1e-06 for instance and model parameters
Doing analysis at TEMP = 27.000000 and TNOM = 27.000000

 Reference value :  0.00000e+00
No. of Data Rows : 1
i(vmeas_ana) = 0.000000e+00
i(vmeas_dig) = 0.000000e+00
i(vavdd) = -9.36776e-06
ngspice-42 done
Warning: singular matrix:  check node x1.vena

Warning: Dynamic gmin stepping failed
Note: Starting true gmin stepping
Warning: singular matrix:  check node x1.vena

Warning: singular matrix:  check node x1.vena

Warning: singular matrix:  check node x1.vena

Warning: singular matrix:  check node x1.vena

Warning: True gmin stepping failed
Note: Starting source stepping
Warning: source stepping failed
Note: Transient op started
Note: Transient op finished successfully
******
** ngspice-42 : Circuit level simulation program
** Compiled with Sparse Direct Linear Solver
** The U. C. Berkeley CAD Group
** Copyright 1985-1994, Regents of the University of California.
** Copyright 2001-2023, The ngspice team.
** Please get your ngspice manual from https://ngspice.sourceforge.io/docs.html
** Please file your bug-reports at http://ngspice.sourceforge.net/bugrep.html
** Creation Date: Sun Mar 10 02:59:47 UTC 2024
******

Note: Compatibility modes selected: hs a


Circuit: ** sch_path: /home/cmaier/eda/efabless/chipalooza2024/sky130_ak_ip__cmos_vref/cace/tb_power.sch

option SCALE: Scale is set to 1e-06 for instance and model parameters
option SCALE: Scale is set to 1e-06 for instance and model parameters
option SCALE: Scale is set to 1e-06 for instance and model parameters
option SCALE: Scale is set to 1e-06 for instance and model parameters
Doing analysis at TEMP = 27.000000 and TNOM = 27.000000

 Reference value :  0.00000e+00
No. of Data Rows : 1
i(vmeas_ana) = 0.000000e+00
i(vmeas_dig) = 0.000000e+00
i(vavdd) = -8.33348e-06
ngspice-42 done
Running: ngspice  ngspice/Idd_enabled_15.spice
Current working directory is: /home/cmaier/EDA/efabless/chipalooza2024/sky130_ak_ip__cmos_vref
Warning: singular matrix:  check node x1.vena

Note: Starting dynamic gmin stepping
Running: ngspice  ngspice/Idd_enabled_16.spice
Current working directory is: /home/cmaier/EDA/efabless/chipalooza2024/sky130_ak_ip__cmos_vref
Warning: singular matrix:  check node x1.vena

Note: Starting dynamic gmin stepping
Warning: singular matrix:  check node x1.vena

Warning: Dynamic gmin stepping failed
Note: Starting true gmin stepping
Warning: singular matrix:  check node x1.vena

Warning: singular matrix:  check node x1.vena

Warning: singular matrix:  check node x1.vena

Warning: singular matrix:  check node x1.vena

Warning: True gmin stepping failed
Note: Starting source stepping
Warning: source stepping failed
Note: Transient op started
Warning: singular matrix:  check node x1.vena

Warning: Dynamic gmin stepping failed
Note: Starting true gmin stepping
Note: Transient op finished successfully
******
** ngspice-42 : Circuit level simulation program
** Compiled with Sparse Direct Linear Solver
** The U. C. Berkeley CAD Group
** Copyright 1985-1994, Regents of the University of California.
** Copyright 2001-2023, The ngspice team.
** Please get your ngspice manual from https://ngspice.sourceforge.io/docs.html
** Please file your bug-reports at http://ngspice.sourceforge.net/bugrep.html
** Creation Date: Sun Mar 10 02:59:47 UTC 2024
******

Note: Compatibility modes selected: hs a


Circuit: ** sch_path: /home/cmaier/eda/efabless/chipalooza2024/sky130_ak_ip__cmos_vref/cace/tb_power.sch

option SCALE: Scale is set to 1e-06 for instance and model parameters
option SCALE: Scale is set to 1e-06 for instance and model parameters
option SCALE: Scale is set to 1e-06 for instance and model parameters
option SCALE: Scale is set to 1e-06 for instance and model parameters
Doing analysis at TEMP = 27.000000 and TNOM = 27.000000

Warning: singular matrix:  check node x1.vena

Warning: singular matrix:  check node x1.vena

 Reference value :  0.00000e+00
No. of Data Rows : 1
i(vmeas_ana) = 0.000000e+00
i(vmeas_dig) = 0.000000e+00
i(vavdd) = -1.04368e-05
ngspice-42 done
Warning: singular matrix:  check node x1.vena

Warning: singular matrix:  check node x1.vena

Warning: True gmin stepping failed
Note: Starting source stepping
Warning: source stepping failed
Note: Transient op started
Running: ngspice  ngspice/Idd_enabled_17.spice
Current working directory is: /home/cmaier/EDA/efabless/chipalooza2024/sky130_ak_ip__cmos_vref
Warning: singular matrix:  check node x1.vena

Note: Starting dynamic gmin stepping
Running: ngspice  ngspice/Idd_enabled_19.spice
Current working directory is: /home/cmaier/EDA/efabless/chipalooza2024/sky130_ak_ip__cmos_vref
Warning: singular matrix:  check node x1.vena

Note: Starting dynamic gmin stepping
Warning: singular matrix:  check node x1.vena

Warning: Dynamic gmin stepping failed
Note: Starting true gmin stepping
Warning: singular matrix:  check node x1.vena

Warning: singular matrix:  check node x1.vena

Warning: singular matrix:  check node x1.vena

Warning: singular matrix:  check node x1.vena

Warning: True gmin stepping failed
Note: Starting source stepping
Warning: source stepping failed
Note: Transient op started
Warning: singular matrix:  check node x1.vena

Warning: Dynamic gmin stepping failed
Note: Starting true gmin stepping
Warning: singular matrix:  check node x1.vena

Warning: singular matrix:  check node x1.vena

Warning: singular matrix:  check node x1.vena

Warning: singular matrix:  check node x1.vena

Warning: True gmin stepping failed
Note: Starting source stepping
Warning: source stepping failed
Note: Transient op started
Running: ngspice  ngspice/Idd_enabled_18.spice
Current working directory is: /home/cmaier/EDA/efabless/chipalooza2024/sky130_ak_ip__cmos_vref
Warning: singular matrix:  check node x1.vena

Note: Starting dynamic gmin stepping
Note: Transient op finished successfully
******
** ngspice-42 : Circuit level simulation program
** Compiled with Sparse Direct Linear Solver
** The U. C. Berkeley CAD Group
** Copyright 1985-1994, Regents of the University of California.
** Copyright 2001-2023, The ngspice team.
** Please get your ngspice manual from https://ngspice.sourceforge.io/docs.html
** Please file your bug-reports at http://ngspice.sourceforge.net/bugrep.html
** Creation Date: Sun Mar 10 02:59:47 UTC 2024
******

Note: Compatibility modes selected: hs a


Circuit: ** sch_path: /home/cmaier/eda/efabless/chipalooza2024/sky130_ak_ip__cmos_vref/cace/tb_power.sch

option SCALE: Scale is set to 1e-06 for instance and model parameters
option SCALE: Scale is set to 1e-06 for instance and model parameters
option SCALE: Scale is set to 1e-06 for instance and model parameters
option SCALE: Scale is set to 1e-06 for instance and model parameters
Doing analysis at TEMP = -40.000000 and TNOM = 27.000000

Note: Transient op finished successfully
******
** ngspice-42 : Circuit level simulation program
** Compiled with Sparse Direct Linear Solver
** The U. C. Berkeley CAD Group
** Copyright 1985-1994, Regents of the University of California.
** Copyright 2001-2023, The ngspice team.
** Please get your ngspice manual from https://ngspice.sourceforge.io/docs.html
** Please file your bug-reports at http://ngspice.sourceforge.net/bugrep.html
** Creation Date: Sun Mar 10 02:59:47 UTC 2024
******

Note: Compatibility modes selected: hs a


Circuit: ** sch_path: /home/cmaier/eda/efabless/chipalooza2024/sky130_ak_ip__cmos_vref/cace/tb_power.sch

option SCALE: Scale is set to 1e-06 for instance and model parameters
option SCALE: Scale is set to 1e-06 for instance and model parameters
option SCALE: Scale is set to 1e-06 for instance and model parameters
option SCALE: Scale is set to 1e-06 for instance and model parameters
Doing analysis at TEMP = 85.000000 and TNOM = 27.000000

 Reference value :  0.00000e+00
No. of Data Rows : 1
i(vmeas_ana) = 0.000000e+00
i(vmeas_dig) = 0.000000e+00
i(vavdd) = -8.74606e-06
ngspice-42 done
 Reference value :  0.00000e+00
No. of Data Rows : 1
i(vmeas_ana) = 0.000000e+00
i(vmeas_dig) = 0.000000e+00
i(vavdd) = -9.43351e-06
ngspice-42 done
Note: Transient op finished successfully
******
** ngspice-42 : Circuit level simulation program
** Compiled with Sparse Direct Linear Solver
** The U. C. Berkeley CAD Group
** Copyright 1985-1994, Regents of the University of California.
** Copyright 2001-2023, The ngspice team.
** Please get your ngspice manual from https://ngspice.sourceforge.io/docs.html
** Please file your bug-reports at http://ngspice.sourceforge.net/bugrep.html
** Creation Date: Sun Mar 10 02:59:47 UTC 2024
******

Note: Compatibility modes selected: hs a


Circuit: ** sch_path: /home/cmaier/eda/efabless/chipalooza2024/sky130_ak_ip__cmos_vref/cace/tb_power.sch

option SCALE: Scale is set to 1e-06 for instance and model parameters
option SCALE: Scale is set to 1e-06 for instance and model parameters
option SCALE: Scale is set to 1e-06 for instance and model parameters
option SCALE: Scale is set to 1e-06 for instance and model parameters
Doing analysis at TEMP = 85.000000 and TNOM = 27.000000

 Reference value :  0.00000e+00
No. of Data Rows : 1
i(vmeas_ana) = 0.000000e+00
i(vmeas_dig) = 0.000000e+00
i(vavdd) = -8.36066e-06
ngspice-42 done
Warning: singular matrix:  check node x1.vena

Warning: Dynamic gmin stepping failed
Note: Starting true gmin stepping
Warning: singular matrix:  check node x1.vena

Warning: singular matrix:  check node x1.vena

Warning: singular matrix:  check node x1.vena

Warning: singular matrix:  check node x1.vena

Warning: True gmin stepping failed
Note: Starting source stepping
Warning: source stepping failed
Note: Transient op started
Simulation of vbg_nom has completed.
Simulation of vbgsc_nom has completed.
Note: Parameter status changed from "skip" to "active".
Simulating parameter Idd_disabled
Running: ngspice  ngspice/Idd_enabled_20.spice
Current working directory is: /home/cmaier/EDA/efabless/chipalooza2024/sky130_ak_ip__cmos_vref
Warning: singular matrix:  check node x1.vena

Note: Starting dynamic gmin stepping
Note: Transient op finished successfully
******
** ngspice-42 : Circuit level simulation program
** Compiled with Sparse Direct Linear Solver
** The U. C. Berkeley CAD Group
** Copyright 1985-1994, Regents of the University of California.
** Copyright 2001-2023, The ngspice team.
** Please get your ngspice manual from https://ngspice.sourceforge.io/docs.html
** Please file your bug-reports at http://ngspice.sourceforge.net/bugrep.html
** Creation Date: Sun Mar 10 02:59:47 UTC 2024
******

Note: Compatibility modes selected: hs a


Circuit: ** sch_path: /home/cmaier/eda/efabless/chipalooza2024/sky130_ak_ip__cmos_vref/cace/tb_power.sch

option SCALE: Scale is set to 1e-06 for instance and model parameters
option SCALE: Scale is set to 1e-06 for instance and model parameters
option SCALE: Scale is set to 1e-06 for instance and model parameters
option SCALE: Scale is set to 1e-06 for instance and model parameters
Doing analysis at TEMP = 85.000000 and TNOM = 27.000000

 Reference value :  0.00000e+00
No. of Data Rows : 1
i(vmeas_ana) = 0.000000e+00
i(vmeas_dig) = 0.000000e+00
i(vavdd) = -1.05824e-05
ngspice-42 done
Warning: singular matrix:  check node x1.vena

Warning: Dynamic gmin stepping failed
Note: Starting true gmin stepping
Warning: singular matrix:  check node x1.vena

Warning: singular matrix:  check node x1.vena

Warning: singular matrix:  check node x1.vena

Warning: singular matrix:  check node x1.vena

Warning: True gmin stepping failed
Note: Starting source stepping
Warning: source stepping failed
Note: Transient op started
Running: ngspice  ngspice/Idd_enabled_21.spice
Current working directory is: /home/cmaier/EDA/efabless/chipalooza2024/sky130_ak_ip__cmos_vref
Warning: singular matrix:  check node x1.vena

Note: Starting dynamic gmin stepping
Note: Transient op finished successfully
******
** ngspice-42 : Circuit level simulation program
** Compiled with Sparse Direct Linear Solver
** The U. C. Berkeley CAD Group
** Copyright 1985-1994, Regents of the University of California.
** Copyright 2001-2023, The ngspice team.
** Please get your ngspice manual from https://ngspice.sourceforge.io/docs.html
** Please file your bug-reports at http://ngspice.sourceforge.net/bugrep.html
** Creation Date: Sun Mar 10 02:59:47 UTC 2024
******

Note: Compatibility modes selected: hs a


Circuit: ** sch_path: /home/cmaier/eda/efabless/chipalooza2024/sky130_ak_ip__cmos_vref/cace/tb_power.sch

option SCALE: Scale is set to 1e-06 for instance and model parameters
option SCALE: Scale is set to 1e-06 for instance and model parameters
option SCALE: Scale is set to 1e-06 for instance and model parameters
option SCALE: Scale is set to 1e-06 for instance and model parameters
Doing analysis at TEMP = -40.000000 and TNOM = 27.000000

 Reference value :  0.00000e+00
No. of Data Rows : 1
i(vmeas_ana) = 0.000000e+00
i(vmeas_dig) = 0.000000e+00
i(vavdd) = -9.53922e-06
ngspice-42 done
Warning: singular matrix:  check node x1.vena

Warning: Dynamic gmin stepping failed
Note: Starting true gmin stepping
Warning: singular matrix:  check node x1.vena

Warning: singular matrix:  check node x1.vena

Warning: singular matrix:  check node x1.vena

Warning: singular matrix:  check node x1.vena

Warning: True gmin stepping failed
Note: Starting source stepping
Warning: source stepping failed
Note: Transient op started
Note: Transient op finished successfully
******
** ngspice-42 : Circuit level simulation program
** Compiled with Sparse Direct Linear Solver
** The U. C. Berkeley CAD Group
** Copyright 1985-1994, Regents of the University of California.
** Copyright 2001-2023, The ngspice team.
** Please get your ngspice manual from https://ngspice.sourceforge.io/docs.html
** Please file your bug-reports at http://ngspice.sourceforge.net/bugrep.html
** Creation Date: Sun Mar 10 02:59:47 UTC 2024
******

Note: Compatibility modes selected: hs a


Circuit: ** sch_path: /home/cmaier/eda/efabless/chipalooza2024/sky130_ak_ip__cmos_vref/cace/tb_power.sch

option SCALE: Scale is set to 1e-06 for instance and model parameters
option SCALE: Scale is set to 1e-06 for instance and model parameters
option SCALE: Scale is set to 1e-06 for instance and model parameters
option SCALE: Scale is set to 1e-06 for instance and model parameters
Doing analysis at TEMP = -40.000000 and TNOM = 27.000000

 Reference value :  0.00000e+00
No. of Data Rows : 1
i(vmeas_ana) = 0.000000e+00
i(vmeas_dig) = 0.000000e+00
i(vavdd) = -1.04813e-05
ngspice-42 done
Checking for out-of-date schematic-captured netlists.
Checking for out-of-date testbench netlist tb_power.spice.
Evaluating electrical parameter Idd_disabled
Launching Simulations
Total files to simulate: 27
Running: ngspice  ngspice/Idd_enabled_24.spice
Current working directory is: /home/cmaier/EDA/efabless/chipalooza2024/sky130_ak_ip__cmos_vref
Warning: singular matrix:  check node x1.vena

Note: Starting dynamic gmin stepping
Running: ngspice  ngspice/Idd_enabled_22.spice
Current working directory is: /home/cmaier/EDA/efabless/chipalooza2024/sky130_ak_ip__cmos_vref
Warning: singular matrix:  check node x1.vena

Note: Starting dynamic gmin stepping
Warning: singular matrix:  check node x1.vena

Warning: Dynamic gmin stepping failed
Note: Starting true gmin stepping
Warning: singular matrix:  check node x1.vena

Warning: singular matrix:  check node x1.vena

Running: ngspice  ngspice/Idd_enabled_25.spice
Current working directory is: /home/cmaier/EDA/efabless/chipalooza2024/sky130_ak_ip__cmos_vref
Warning: singular matrix:  check node x1.vena

Note: Starting dynamic gmin stepping
Warning: singular matrix:  check node x1.vena

Warning: singular matrix:  check node x1.vena

Warning: True gmin stepping failed
Note: Starting source stepping
Running: ngspice  ngspice/Idd_enabled_23.spice
Current working directory is: /home/cmaier/EDA/efabless/chipalooza2024/sky130_ak_ip__cmos_vref
Warning: singular matrix:  check node x1.vena

Note: Starting dynamic gmin stepping
Warning: source stepping failed
Note: Transient op started
Warning: singular matrix:  check node x1.vena

Warning: Dynamic gmin stepping failed
Note: Starting true gmin stepping
Warning: singular matrix:  check node x1.vena

Warning: singular matrix:  check node x1.vena

Warning: singular matrix:  check node x1.vena

Warning: singular matrix:  check node x1.vena

Warning: True gmin stepping failed
Note: Starting source stepping
Warning: source stepping failed
Note: Transient op started
Warning: singular matrix:  check node x1.vena

Warning: Dynamic gmin stepping failed
Note: Starting true gmin stepping
Warning: singular matrix:  check node x1.vena

Warning: singular matrix:  check node x1.vena

Warning: singular matrix:  check node x1.vena

Warning: singular matrix:  check node x1.vena

Warning: True gmin stepping failed
Note: Starting source stepping
Warning: source stepping failed
Note: Transient op started
Note: Transient op finished successfully
******
** ngspice-42 : Circuit level simulation program
** Compiled with Sparse Direct Linear Solver
** The U. C. Berkeley CAD Group
** Copyright 1985-1994, Regents of the University of California.
** Copyright 2001-2023, The ngspice team.
** Please get your ngspice manual from https://ngspice.sourceforge.io/docs.html
** Please file your bug-reports at http://ngspice.sourceforge.net/bugrep.html
** Creation Date: Sun Mar 10 02:59:47 UTC 2024
******

Note: Compatibility modes selected: hs a


Circuit: ** sch_path: /home/cmaier/eda/efabless/chipalooza2024/sky130_ak_ip__cmos_vref/cace/tb_power.sch

option SCALE: Scale is set to 1e-06 for instance and model parameters
option SCALE: Scale is set to 1e-06 for instance and model parameters
option SCALE: Scale is set to 1e-06 for instance and model parameters
option SCALE: Scale is set to 1e-06 for instance and model parameters
Doing analysis at TEMP = 27.000000 and TNOM = 27.000000

 Reference value :  0.00000e+00
No. of Data Rows : 1
i(vmeas_ana) = 0.000000e+00
i(vmeas_dig) = 0.000000e+00
i(vavdd) = -8.06824e-06
ngspice-42 done
Note: Transient op finished successfully
******
** ngspice-42 : Circuit level simulation program
** Compiled with Sparse Direct Linear Solver
** The U. C. Berkeley CAD Group
** Copyright 1985-1994, Regents of the University of California.
** Copyright 2001-2023, The ngspice team.
** Please get your ngspice manual from https://ngspice.sourceforge.io/docs.html
** Please file your bug-reports at http://ngspice.sourceforge.net/bugrep.html
** Creation Date: Sun Mar 10 02:59:47 UTC 2024
******

Note: Compatibility modes selected: hs a


Circuit: ** sch_path: /home/cmaier/eda/efabless/chipalooza2024/sky130_ak_ip__cmos_vref/cace/tb_power.sch

option SCALE: Scale is set to 1e-06 for instance and model parameters
option SCALE: Scale is set to 1e-06 for instance and model parameters
option SCALE: Scale is set to 1e-06 for instance and model parameters
option SCALE: Scale is set to 1e-06 for instance and model parameters
Doing analysis at TEMP = 85.000000 and TNOM = 27.000000

 Reference value :  0.00000e+00
No. of Data Rows : 1
i(vmeas_ana) = 0.000000e+00
i(vmeas_dig) = 0.000000e+00
i(vavdd) = -8.09150e-06
ngspice-42 done
Note: Transient op finished successfully
******
** ngspice-42 : Circuit level simulation program
** Compiled with Sparse Direct Linear Solver
** The U. C. Berkeley CAD Group
** Copyright 1985-1994, Regents of the University of California.
** Copyright 2001-2023, The ngspice team.
** Please get your ngspice manual from https://ngspice.sourceforge.io/docs.html
** Please file your bug-reports at http://ngspice.sourceforge.net/bugrep.html
** Creation Date: Sun Mar 10 02:59:47 UTC 2024
******

Note: Compatibility modes selected: hs a


Circuit: ** sch_path: /home/cmaier/eda/efabless/chipalooza2024/sky130_ak_ip__cmos_vref/cace/tb_power.sch

option SCALE: Scale is set to 1e-06 for instance and model parameters
option SCALE: Scale is set to 1e-06 for instance and model parameters
option SCALE: Scale is set to 1e-06 for instance and model parameters
option SCALE: Scale is set to 1e-06 for instance and model parameters
Doing analysis at TEMP = 27.000000 and TNOM = 27.000000

 Reference value :  0.00000e+00
No. of Data Rows : 1
i(vmeas_ana) = 0.000000e+00
i(vmeas_dig) = 0.000000e+00
i(vavdd) = -9.07912e-06
ngspice-42 done
Warning: singular matrix:  check node x1.vena

Warning: Dynamic gmin stepping failed
Note: Starting true gmin stepping
Warning: singular matrix:  check node x1.vena

Warning: singular matrix:  check node x1.vena

Warning: singular matrix:  check node x1.vena

Warning: singular matrix:  check node x1.vena

Warning: True gmin stepping failed
Note: Starting source stepping
Warning: source stepping failed
Note: Transient op started
Running: ngspice  ngspice/Idd_enabled_26.spice
Current working directory is: /home/cmaier/EDA/efabless/chipalooza2024/sky130_ak_ip__cmos_vref
Warning: singular matrix:  check node x1.vena

Note: Starting dynamic gmin stepping
Running: ngspice  ngspice/Idd_enabled_27.spice
Current working directory is: /home/cmaier/EDA/efabless/chipalooza2024/sky130_ak_ip__cmos_vref
Warning: singular matrix:  check node x1.vena

Note: Starting dynamic gmin stepping
Warning: singular matrix:  check node x1.vena

Warning: Dynamic gmin stepping failed
Note: Starting true gmin stepping
Warning: singular matrix:  check node x1.vena

Warning: singular matrix:  check node x1.vena

Warning: singular matrix:  check node x1.vena

Warning: singular matrix:  check node x1.vena

Warning: True gmin stepping failed
Note: Starting source stepping
Warning: source stepping failed
Note: Transient op started
Note: Transient op finished successfully
******
** ngspice-42 : Circuit level simulation program
** Compiled with Sparse Direct Linear Solver
** The U. C. Berkeley CAD Group
** Copyright 1985-1994, Regents of the University of California.
** Copyright 2001-2023, The ngspice team.
** Please get your ngspice manual from https://ngspice.sourceforge.io/docs.html
** Please file your bug-reports at http://ngspice.sourceforge.net/bugrep.html
** Creation Date: Sun Mar 10 02:59:47 UTC 2024
******

Note: Compatibility modes selected: hs a


Circuit: ** sch_path: /home/cmaier/eda/efabless/chipalooza2024/sky130_ak_ip__cmos_vref/cace/tb_power.sch

option SCALE: Scale is set to 1e-06 for instance and model parameters
option SCALE: Scale is set to 1e-06 for instance and model parameters
option SCALE: Scale is set to 1e-06 for instance and model parameters
option SCALE: Scale is set to 1e-06 for instance and model parameters
Doing analysis at TEMP = 85.000000 and TNOM = 27.000000

 Reference value :  0.00000e+00
No. of Data Rows : 1
i(vmeas_ana) = 0.000000e+00
i(vmeas_dig) = 0.000000e+00
i(vavdd) = -9.18723e-06
ngspice-42 done
Note: Transient op finished successfully
******
** ngspice-42 : Circuit level simulation program
** Compiled with Sparse Direct Linear Solver
** The U. C. Berkeley CAD Group
** Copyright 1985-1994, Regents of the University of California.
** Copyright 2001-2023, The ngspice team.
** Please get your ngspice manual from https://ngspice.sourceforge.io/docs.html
** Please file your bug-reports at http://ngspice.sourceforge.net/bugrep.html
** Creation Date: Sun Mar 10 02:59:47 UTC 2024
******

Note: Compatibility modes selected: hs a


Circuit: ** sch_path: /home/cmaier/eda/efabless/chipalooza2024/sky130_ak_ip__cmos_vref/cace/tb_power.sch

option SCALE: Scale is set to 1e-06 for instance and model parameters
option SCALE: Scale is set to 1e-06 for instance and model parameters
option SCALE: Scale is set to 1e-06 for instance and model parameters
option SCALE: Scale is set to 1e-06 for instance and model parameters
Doing analysis at TEMP = 27.000000 and TNOM = 27.000000

 Reference value :  0.00000e+00
No. of Data Rows : 1
i(vmeas_ana) = 0.000000e+00
i(vmeas_dig) = 0.000000e+00
i(vavdd) = -1.01428e-05
ngspice-42 done
Warning: singular matrix:  check node x1.vena

Warning: Dynamic gmin stepping failed
Note: Starting true gmin stepping
Warning: singular matrix:  check node x1.vena

Warning: singular matrix:  check node x1.vena

Warning: singular matrix:  check node x1.vena

Warning: singular matrix:  check node x1.vena

Warning: True gmin stepping failed
Note: Starting source stepping
Warning: source stepping failed
Note: Transient op started
Note: Transient op finished successfully
******
** ngspice-42 : Circuit level simulation program
** Compiled with Sparse Direct Linear Solver
** The U. C. Berkeley CAD Group
** Copyright 1985-1994, Regents of the University of California.
** Copyright 2001-2023, The ngspice team.
** Please get your ngspice manual from https://ngspice.sourceforge.io/docs.html
** Please file your bug-reports at http://ngspice.sourceforge.net/bugrep.html
** Creation Date: Sun Mar 10 02:59:47 UTC 2024
******

Note: Compatibility modes selected: hs a


Circuit: ** sch_path: /home/cmaier/eda/efabless/chipalooza2024/sky130_ak_ip__cmos_vref/cace/tb_power.sch

option SCALE: Scale is set to 1e-06 for instance and model parameters
option SCALE: Scale is set to 1e-06 for instance and model parameters
option SCALE: Scale is set to 1e-06 for instance and model parameters
option SCALE: Scale is set to 1e-06 for instance and model parameters
Doing analysis at TEMP = 85.000000 and TNOM = 27.000000

Running: ngspice  ngspice/Idd_disabled_6.spice
Current working directory is: /home/cmaier/EDA/efabless/chipalooza2024/sky130_ak_ip__cmos_vref
Warning: singular matrix:  check node x1.vena

Note: Starting dynamic gmin stepping
 Reference value :  0.00000e+00
No. of Data Rows : 1
i(vmeas_ana) = 0.000000e+00
i(vmeas_dig) = 0.000000e+00
i(vavdd) = -1.04291e-05
ngspice-42 done
Warning: singular matrix:  check node x1.vena

Warning: Dynamic gmin stepping failed
Note: Starting true gmin stepping
Warning: singular matrix:  check node x1.vena

Warning: singular matrix:  check node x1.vena

Warning: singular matrix:  check node x1.vena

Warning: singular matrix:  check node x1.vena

Warning: True gmin stepping failed
Note: Starting source stepping
Warning: source stepping failed
Note: Transient op started
Note: Transient op finished successfully
******
** ngspice-42 : Circuit level simulation program
** Compiled with Sparse Direct Linear Solver
** The U. C. Berkeley CAD Group
** Copyright 1985-1994, Regents of the University of California.
** Copyright 2001-2023, The ngspice team.
** Please get your ngspice manual from https://ngspice.sourceforge.io/docs.html
** Please file your bug-reports at http://ngspice.sourceforge.net/bugrep.html
** Creation Date: Sun Mar 10 02:59:47 UTC 2024
******

Note: Compatibility modes selected: hs a


Circuit: ** sch_path: /home/cmaier/eda/efabless/chipalooza2024/sky130_ak_ip__cmos_vref/cace/tb_power.sch

option SCALE: Scale is set to 1e-06 for instance and model parameters
option SCALE: Scale is set to 1e-06 for instance and model parameters
option SCALE: Scale is set to 1e-06 for instance and model parameters
option SCALE: Scale is set to 1e-06 for instance and model parameters
Doing analysis at TEMP = 27.000000 and TNOM = 27.000000

 Reference value :  0.00000e+00
No. of Data Rows : 1
i(vmeas_ana) = 0.000000e+00
i(vmeas_dig) = 0.000000e+00
i(vavdd) = -9.16150e-06
ngspice-42 done
Running: ngspice  ngspice/Idd_disabled_7.spice
Current working directory is: /home/cmaier/EDA/efabless/chipalooza2024/sky130_ak_ip__cmos_vref
Warning: singular matrix:  check node x1.vena

Note: Starting dynamic gmin stepping
Warning: singular matrix:  check node x1.vena

Warning: Dynamic gmin stepping failed
Note: Starting true gmin stepping
Warning: singular matrix:  check node x1.vena

Warning: singular matrix:  check node x1.vena

Warning: singular matrix:  check node x1.vena

Warning: singular matrix:  check node x1.vena

Warning: True gmin stepping failed
Note: Starting source stepping
Note: Parameter status changed from "skip" to "active".
Simulating parameter accuracy
Warning: source stepping failed
Note: Transient op started
Checking for out-of-date schematic-captured netlists.
Checking for out-of-date testbench netlist tb_vref_mc.spice.
Evaluating electrical parameter accuracy
Launching Simulations
Total files to simulate: 1
Files to simulate method Idd_enabled: 27
Completed 27 of 27 simulations
Collating results
Running: ngspice  ngspice/Idd_disabled_2.spice
Current working directory is: /home/cmaier/EDA/efabless/chipalooza2024/sky130_ak_ip__cmos_vref
Warning: singular matrix:  check node x1.vena

Note: Starting dynamic gmin stepping
Warning: singular matrix:  check node x1.vena

Warning: Dynamic gmin stepping failed
Note: Starting true gmin stepping
Warning: singular matrix:  check node x1.vena

Warning: singular matrix:  check node x1.vena

Warning: singular matrix:  check node x1.vena

Warning: singular matrix:  check node x1.vena

Warning: True gmin stepping failed
Note: Starting source stepping
Note: Transient op finished successfully
******
** ngspice-42 : Circuit level simulation program
** Compiled with Sparse Direct Linear Solver
** The U. C. Berkeley CAD Group
** Copyright 1985-1994, Regents of the University of California.
** Copyright 2001-2023, The ngspice team.
** Please get your ngspice manual from https://ngspice.sourceforge.io/docs.html
[...]
Reset re-loads circuit ** sch_path: /home/cmaier/eda/efabless/chipalooza2024/sky130_ak_ip__cmos_vref/cace/tb_vref_mc.sch

Circuit: ** sch_path: /home/cmaier/eda/efabless/chipalooza2024/sky130_ak_ip__cmos_vref/cace/tb_vref_mc.sch

option SCALE: Scale is set to 1e-06 for instance and model parameters
option SCALE: Scale is set to 1e-06 for instance and model parameters
option SCALE: Scale is set to 1e-06 for instance and model parameters
option SCALE: Scale is set to 1e-06 for instance and model parameters
Doing analysis at TEMP = 27.000000 and TNOM = 27.000000


No. of Data Rows : 1
Reset re-loads circuit ** sch_path: /home/cmaier/eda/efabless/chipalooza2024/sky130_ak_ip__cmos_vref/cace/tb_vref_mc.sch

Circuit: ** sch_path: /home/cmaier/eda/efabless/chipalooza2024/sky130_ak_ip__cmos_vref/cace/tb_vref_mc.sch

option SCALE: Scale is set to 1e-06 for instance and model parameters
option SCALE: Scale is set to 1e-06 for instance and model parameters
option SCALE: Scale is set to 1e-06 for instance and model parameters
option SCALE: Scale is set to 1e-06 for instance and model parameters
Doing analysis at TEMP = 27.000000 and TNOM = 27.000000

 Reference value :  0.00000e+00
Warning from checkvalid: vector ref_pin_option is not available or has zero length.
Warning: singular matrix:  check node x1.vena

Note: Starting dynamic gmin stepping
Warning: singular matrix:  check node x1.vena

Warning: Dynamic gmin stepping failed
Note: Starting true gmin stepping
Warning: singular matrix:  check node x1.vena

Warning: singular matrix:  check node x1.vena

Warning: singular matrix:  check node x1.vena

Warning: singular matrix:  check node x1.vena

Warning: True gmin stepping failed
Note: Starting source stepping
Warning: source stepping failed
Note: Transient op started
Note: Transient op finished successfully
Warning from checkvalid: vector ref_pin_option is not available or has zero length.
Warning: singular matrix:  check node x1.vena

Note: Starting dynamic gmin stepping
Warning: singular matrix:  check node x1.vena

Warning: Dynamic gmin stepping failed
Note: Starting true gmin stepping
Warning: singular matrix:  check node x1.vena

Warning: singular matrix:  check node x1.vena

Warning: singular matrix:  check node x1.vena

Warning: singular matrix:  check node x1.vena

Warning: True gmin stepping failed
Note: Starting source stepping
Warning: source stepping failed
Note: Transient op started
Note: Transient op finished successfully

No. of Data Rows : 1
Reset re-loads circuit ** sch_path: /home/cmaier/eda/efabless/chipalooza2024/sky130_ak_ip__cmos_vref/cace/tb_vref_mc.sch

Circuit: ** sch_path: /home/cmaier/eda/efabless/chipalooza2024/sky130_ak_ip__cmos_vref/cace/tb_vref_mc.sch

option SCALE: Scale is set to 1e-06 for instance and model parameters
option SCALE: Scale is set to 1e-06 for instance and model parameters
option SCALE: Scale is set to 1e-06 for instance and model parameters
option SCALE: Scale is set to 1e-06 for instance and model parameters
Doing analysis at TEMP = 27.000000 and TNOM = 27.000000


No. of Data Rows : 1
Reset re-loads circuit ** sch_path: /home/cmaier/eda/efabless/chipalooza2024/sky130_ak_ip__cmos_vref/cace/tb_vref_mc.sch

Circuit: ** sch_path: /home/cmaier/eda/efabless/chipalooza2024/sky130_ak_ip__cmos_vref/cace/tb_vref_mc.sch

option SCALE: Scale is set to 1e-06 for instance and model parameters
option SCALE: Scale is set to 1e-06 for instance and model parameters
option SCALE: Scale is set to 1e-06 for instance and model parameters
option SCALE: Scale is set to 1e-06 for instance and model parameters
Doing analysis at TEMP = 27.000000 and TNOM = 27.000000

 Reference value :  0.00000e+00
Warning from checkvalid: vector ref_pin_option is not available or has zero length.
Warning: singular matrix:  check node x1.vena

Note: Starting dynamic gmin stepping
Warning: singular matrix:  check node x1.vena

Warning: Dynamic gmin stepping failed
Note: Starting true gmin stepping
Warning: singular matrix:  check node x1.vena

Warning: singular matrix:  check node x1.vena

Warning: singular matrix:  check node x1.vena

Warning: singular matrix:  check node x1.vena

Warning: True gmin stepping failed
Note: Starting source stepping
Warning: source stepping failed
Note: Transient op started
Note: Transient op finished successfully
Warning from checkvalid: vector ref_pin_option is not available or has zero length.
Warning: singular matrix:  check node x1.vena

Note: Starting dynamic gmin stepping
Warning: singular matrix:  check node x1.vena

Warning: Dynamic gmin stepping failed
Note: Starting true gmin stepping
Warning: singular matrix:  check node x1.vena

Warning: singular matrix:  check node x1.vena

Warning: singular matrix:  check node x1.vena

Warning: singular matrix:  check node x1.vena

Warning: True gmin stepping failed
Note: Starting source stepping
Warning: source stepping failed
Note: Transient op started
Note: Transient op finished successfully

No. of Data Rows : 1
Reset re-loads circuit ** sch_path: /home/cmaier/eda/efabless/chipalooza2024/sky130_ak_ip__cmos_vref/cace/tb_vref_mc.sch

Circuit: ** sch_path: /home/cmaier/eda/efabless/chipalooza2024/sky130_ak_ip__cmos_vref/cace/tb_vref_mc.sch

option SCALE: Scale is set to 1e-06 for instance and model parameters
option SCALE: Scale is set to 1e-06 for instance and model parameters
option SCALE: Scale is set to 1e-06 for instance and model parameters
option SCALE: Scale is set to 1e-06 for instance and model parameters
Doing analysis at TEMP = 27.000000 and TNOM = 27.000000


No. of Data Rows : 1
Reset re-loads circuit ** sch_path: /home/cmaier/eda/efabless/chipalooza2024/sky130_ak_ip__cmos_vref/cace/tb_vref_mc.sch

Circuit: ** sch_path: /home/cmaier/eda/efabless/chipalooza2024/sky130_ak_ip__cmos_vref/cace/tb_vref_mc.sch

option SCALE: Scale is set to 1e-06 for instance and model parameters
option SCALE: Scale is set to 1e-06 for instance and model parameters
option SCALE: Scale is set to 1e-06 for instance and model parameters
option SCALE: Scale is set to 1e-06 for instance and model parameters
Doing analysis at TEMP = 27.000000 and TNOM = 27.000000

 Reference value :  0.00000e+00
Warning from checkvalid: vector ref_pin_option is not available or has zero length.
Warning: singular matrix:  check node x1.vena

Note: Starting dynamic gmin stepping
Warning: singular matrix:  check node x1.vena

Warning: Dynamic gmin stepping failed
Note: Starting true gmin stepping
Warning: singular matrix:  check node x1.vena

Warning: singular matrix:  check node x1.vena

Warning: singular matrix:  check node x1.vena

Warning: singular matrix:  check node x1.vena

Warning: True gmin stepping failed
Note: Starting source stepping
Warning: source stepping failed
Note: Transient op started
Note: Transient op finished successfully
Warning from checkvalid: vector ref_pin_option is not available or has zero length.
Warning: singular matrix:  check node x1.vena

Note: Starting dynamic gmin stepping
Warning: singular matrix:  check node x1.vena

Warning: Dynamic gmin stepping failed
Note: Starting true gmin stepping
Warning: singular matrix:  check node x1.vena

Warning: singular matrix:  check node x1.vena

Warning: singular matrix:  check node x1.vena

Warning: singular matrix:  check node x1.vena

Warning: True gmin stepping failed
Note: Starting source stepping
Warning: source stepping failed
Note: Transient op started
Note: Transient op finished successfully

No. of Data Rows : 1
Reset re-loads circuit ** sch_path: /home/cmaier/eda/efabless/chipalooza2024/sky130_ak_ip__cmos_vref/cace/tb_vref_mc.sch

Circuit: ** sch_path: /home/cmaier/eda/efabless/chipalooza2024/sky130_ak_ip__cmos_vref/cace/tb_vref_mc.sch

option SCALE: Scale is set to 1e-06 for instance and model parameters
option SCALE: Scale is set to 1e-06 for instance and model parameters
option SCALE: Scale is set to 1e-06 for instance and model parameters
option SCALE: Scale is set to 1e-06 for instance and model parameters
Doing analysis at TEMP = 27.000000 and TNOM = 27.000000


No. of Data Rows : 1
Reset re-loads circuit ** sch_path: /home/cmaier/eda/efabless/chipalooza2024/sky130_ak_ip__cmos_vref/cace/tb_vref_mc.sch

Circuit: ** sch_path: /home/cmaier/eda/efabless/chipalooza2024/sky130_ak_ip__cmos_vref/cace/tb_vref_mc.sch

option SCALE: Scale is set to 1e-06 for instance and model parameters
option SCALE: Scale is set to 1e-06 for instance and model parameters
option SCALE: Scale is set to 1e-06 for instance and model parameters
option SCALE: Scale is set to 1e-06 for instance and model parameters
Doing analysis at TEMP = 27.000000 and TNOM = 27.000000

 Reference value :  0.00000e+00
Warning from checkvalid: vector ref_pin_option is not available or has zero length.
Warning: singular matrix:  check node x1.vena

Note: Starting dynamic gmin stepping
Warning: singular matrix:  check node x1.vena

Warning: Dynamic gmin stepping failed
Note: Starting true gmin stepping
Warning: singular matrix:  check node x1.vena

Warning: singular matrix:  check node x1.vena

Warning: singular matrix:  check node x1.vena

Warning: singular matrix:  check node x1.vena

Warning: True gmin stepping failed
Note: Starting source stepping
Warning: source stepping failed
Note: Transient op started
Note: Transient op finished successfully
Warning from checkvalid: vector ref_pin_option is not available or has zero length.
Warning: singular matrix:  check node x1.vena

Note: Starting dynamic gmin stepping
Warning: singular matrix:  check node x1.vena

Warning: Dynamic gmin stepping failed
Note: Starting true gmin stepping
Warning: singular matrix:  check node x1.vena

Warning: singular matrix:  check node x1.vena

Warning: singular matrix:  check node x1.vena

Warning: singular matrix:  check node x1.vena

Warning: True gmin stepping failed
Note: Starting source stepping
Warning: source stepping failed
Note: Transient op started
Note: Transient op finished successfully

No. of Data Rows : 1
Reset re-loads circuit ** sch_path: /home/cmaier/eda/efabless/chipalooza2024/sky130_ak_ip__cmos_vref/cace/tb_vref_mc.sch

Circuit: ** sch_path: /home/cmaier/eda/efabless/chipalooza2024/sky130_ak_ip__cmos_vref/cace/tb_vref_mc.sch

option SCALE: Scale is set to 1e-06 for instance and model parameters
option SCALE: Scale is set to 1e-06 for instance and model parameters
option SCALE: Scale is set to 1e-06 for instance and model parameters
option SCALE: Scale is set to 1e-06 for instance and model parameters
Doing analysis at TEMP = 27.000000 and TNOM = 27.000000


No. of Data Rows : 1
Reset re-loads circuit ** sch_path: /home/cmaier/eda/efabless/chipalooza2024/sky130_ak_ip__cmos_vref/cace/tb_vref_mc.sch

Circuit: ** sch_path: /home/cmaier/eda/efabless/chipalooza2024/sky130_ak_ip__cmos_vref/cace/tb_vref_mc.sch

option SCALE: Scale is set to 1e-06 for instance and model parameters
option SCALE: Scale is set to 1e-06 for instance and model parameters
option SCALE: Scale is set to 1e-06 for instance and model parameters
option SCALE: Scale is set to 1e-06 for instance and model parameters
Doing analysis at TEMP = 27.000000 and TNOM = 27.000000

 Reference value :  0.00000e+00
Warning from checkvalid: vector ref_pin_option is not available or has zero length.
Warning: singular matrix:  check node x1.vena

Note: Starting dynamic gmin stepping
Warning: singular matrix:  check node x1.vena

Warning: Dynamic gmin stepping failed
Note: Starting true gmin stepping
Warning: singular matrix:  check node x1.vena

Warning: singular matrix:  check node x1.vena

Warning: singular matrix:  check node x1.vena

Warning: singular matrix:  check node x1.vena

Warning: True gmin stepping failed
Note: Starting source stepping
Warning: source stepping failed
Note: Transient op started
Note: Transient op finished successfully
Warning from checkvalid: vector ref_pin_option is not available or has zero length.
Warning: singular matrix:  check node x1.vena

Note: Starting dynamic gmin stepping
Warning: singular matrix:  check node x1.vena

Warning: Dynamic gmin stepping failed
Note: Starting true gmin stepping
Warning: singular matrix:  check node x1.vena

Warning: singular matrix:  check node x1.vena

Warning: singular matrix:  check node x1.vena

Warning: singular matrix:  check node x1.vena

Warning: True gmin stepping failed
Note: Starting source stepping
Warning: source stepping failed
Note: Transient op started
Note: Transient op finished successfully

No. of Data Rows : 1
Reset re-loads circuit ** sch_path: /home/cmaier/eda/efabless/chipalooza2024/sky130_ak_ip__cmos_vref/cace/tb_vref_mc.sch

Circuit: ** sch_path: /home/cmaier/eda/efabless/chipalooza2024/sky130_ak_ip__cmos_vref/cace/tb_vref_mc.sch

option SCALE: Scale is set to 1e-06 for instance and model parameters
option SCALE: Scale is set to 1e-06 for instance and model parameters
option SCALE: Scale is set to 1e-06 for instance and model parameters
option SCALE: Scale is set to 1e-06 for instance and model parameters
Doing analysis at TEMP = 27.000000 and TNOM = 27.000000


No. of Data Rows : 1
Reset re-loads circuit ** sch_path: /home/cmaier/eda/efabless/chipalooza2024/sky130_ak_ip__cmos_vref/cace/tb_vref_mc.sch

Circuit: ** sch_path: /home/cmaier/eda/efabless/chipalooza2024/sky130_ak_ip__cmos_vref/cace/tb_vref_mc.sch

option SCALE: Scale is set to 1e-06 for instance and model parameters
option SCALE: Scale is set to 1e-06 for instance and model parameters
option SCALE: Scale is set to 1e-06 for instance and model parameters
option SCALE: Scale is set to 1e-06 for instance and model parameters
Doing analysis at TEMP = 27.000000 and TNOM = 27.000000

 Reference value :  0.00000e+00
Warning from checkvalid: vector ref_pin_option is not available or has zero length.
Warning: singular matrix:  check node x1.vena

Note: Starting dynamic gmin stepping
Warning: singular matrix:  check node x1.vena

Warning: Dynamic gmin stepping failed
Note: Starting true gmin stepping
Warning: singular matrix:  check node x1.vena

Warning: singular matrix:  check node x1.vena

Warning: singular matrix:  check node x1.vena

Warning: singular matrix:  check node x1.vena

Warning: True gmin stepping failed
Note: Starting source stepping
Warning: source stepping failed
Note: Transient op started
Note: Transient op finished successfully
Warning from checkvalid: vector ref_pin_option is not available or has zero length.
Warning: singular matrix:  check node x1.vena

Note: Starting dynamic gmin stepping
Warning: singular matrix:  check node x1.vena

Warning: Dynamic gmin stepping failed
Note: Starting true gmin stepping
Warning: singular matrix:  check node x1.vena

Warning: singular matrix:  check node x1.vena

Warning: singular matrix:  check node x1.vena

Warning: singular matrix:  check node x1.vena

Warning: True gmin stepping failed
Note: Starting source stepping
Warning: source stepping failed
Note: Transient op started
Note: Transient op finished successfully

No. of Data Rows : 1
Reset re-loads circuit ** sch_path: /home/cmaier/eda/efabless/chipalooza2024/sky130_ak_ip__cmos_vref/cace/tb_vref_mc.sch

Circuit: ** sch_path: /home/cmaier/eda/efabless/chipalooza2024/sky130_ak_ip__cmos_vref/cace/tb_vref_mc.sch

option SCALE: Scale is set to 1e-06 for instance and model parameters
option SCALE: Scale is set to 1e-06 for instance and model parameters
option SCALE: Scale is set to 1e-06 for instance and model parameters
option SCALE: Scale is set to 1e-06 for instance and model parameters
Doing analysis at TEMP = 27.000000 and TNOM = 27.000000


No. of Data Rows : 1
Reset re-loads circuit ** sch_path: /home/cmaier/eda/efabless/chipalooza2024/sky130_ak_ip__cmos_vref/cace/tb_vref_mc.sch

Circuit: ** sch_path: /home/cmaier/eda/efabless/chipalooza2024/sky130_ak_ip__cmos_vref/cace/tb_vref_mc.sch

option SCALE: Scale is set to 1e-06 for instance and model parameters
option SCALE: Scale is set to 1e-06 for instance and model parameters
option SCALE: Scale is set to 1e-06 for instance and model parameters
option SCALE: Scale is set to 1e-06 for instance and model parameters
Doing analysis at TEMP = 27.000000 and TNOM = 27.000000

 Reference value :  0.00000e+00
Warning from checkvalid: vector ref_pin_option is not available or has zero length.
Warning: singular matrix:  check node x1.vena

Note: Starting dynamic gmin stepping
Warning: singular matrix:  check node x1.vena

Warning: Dynamic gmin stepping failed
Note: Starting true gmin stepping
Warning: singular matrix:  check node x1.vena

Warning: singular matrix:  check node x1.vena

Warning: singular matrix:  check node x1.vena

Warning: singular matrix:  check node x1.vena

Warning: True gmin stepping failed
Note: Starting source stepping
Warning: source stepping failed
Note: Transient op started
Note: Transient op finished successfully
Warning from checkvalid: vector ref_pin_option is not available or has zero length.

No. of Data Rows : 1
Reset re-loads circuit ** sch_path: /home/cmaier/eda/efabless/chipalooza2024/sky130_ak_ip__cmos_vref/cace/tb_vref_mc.sch

Circuit: ** sch_path: /home/cmaier/eda/efabless/chipalooza2024/sky130_ak_ip__cmos_vref/cace/tb_vref_mc.sch

option SCALE: Scale is set to 1e-06 for instance and model parameters
option SCALE: Scale is set to 1e-06 for instance and model parameters
option SCALE: Scale is set to 1e-06 for instance and model parameters
option SCALE: Scale is set to 1e-06 for instance and model parameters
Doing analysis at TEMP = 27.000000 and TNOM = 27.000000


No. of Data Rows : 1
                                Constant values
                                constants  Sun Mar 10 02:59:47 UTC 2024
--------------------------------------------------------------------------------
Index   v(vref_data)    
--------------------------------------------------------------------------------
0	-9.61511e-05	
1	-9.66658e-05	
2	-9.67112e-05	
3	-9.64186e-05	
4	-9.59492e-05	
5	-9.62517e-05	
6	-9.61278e-05	
7	-9.69516e-05	
8	-9.58955e-05	
9	-9.58049e-05	
10	-9.67931e-05	
11	-9.67652e-05	
12	-9.63737e-05	
13	-9.66407e-05	
14	-9.64608e-05	
15	-9.64015e-05	
16	-9.60902e-05	
17	-9.64150e-05	
18	-9.65519e-05	
19	-9.67479e-05	
20	-9.60783e-05	
21	-9.65912e-05	
22	-9.63867e-05	
23	-9.61499e-05	
24	-9.67711e-05	
25	-9.66388e-05	
26	-9.64183e-05	
27	-9.62394e-05	
28	-9.63138e-05	
29	-9.69214e-05	
30	-9.65333e-05	
31	-9.62968e-05	
32	-9.63443e-05	
33	-9.61251e-05	
34	-9.68244e-05	
35	-9.67286e-05	
36	-9.66418e-05	
37	-9.67242e-05	
38	-9.69056e-05	
39	-9.72253e-05	
40	-9.66117e-05	
41	-9.76169e-05	
42	-9.63721e-05	
43	-9.72148e-05	
44	-9.58684e-05	
45	-9.68111e-05	
46	-9.62316e-05	
47	-9.63365e-05	
48	-9.56481e-05	
49	-9.61046e-05	
50	-9.64457e-05	
51	-9.72454e-05	
52	-9.58339e-05	
53	-9.66218e-05	
54	-9.63077e-05	

Index   v(vref_data)    
--------------------------------------------------------------------------------
55	-9.63357e-05	
56	-9.62818e-05	
57	-9.65597e-05	
58	-9.64352e-05	
59	-9.64756e-05	
60	-9.59212e-05	
61	-9.69855e-05	
62	-9.59930e-05	
63	-9.64964e-05	
64	-9.64535e-05	
65	-9.63595e-05	
66	-9.67301e-05	
67	-9.60796e-05	
68	-9.75883e-05	
69	-9.62922e-05	
70	-9.66166e-05	
71	-9.60073e-05	
72	-9.70083e-05	
73	-9.71315e-05	
74	-9.66081e-05	
75	-9.65892e-05	
76	-9.62851e-05	
77	-9.52386e-05	
78	-9.59559e-05	
79	-9.62347e-05	
80	-9.62827e-05	
81	-9.65405e-05	
82	-9.69812e-05	
83	-9.68727e-05	
84	-9.60629e-05	
85	-9.66539e-05	
86	-9.63210e-05	
87	-9.58731e-05	
88	-9.60742e-05	
89	-9.62608e-05	
90	-9.62059e-05	
91	-9.62623e-05	
92	-9.72796e-05	
93	-9.71011e-05	
94	-9.60534e-05	
95	-9.62896e-05	
96	-9.66382e-05	
97	-9.59190e-05	
98	-9.68652e-05	
99	-9.69601e-05	
ngspice-42 done
Files to simulate method vref_histogram: 1
Completed 1 of 1 simulations
Plotting results
Simulation of vref_histogram has completed.
Diagnostic: Adding item with unrecognized key reports in dictionary paths
Done writing HTML output file doc/sky130_ak_ip__cmos_vref.html
Done writing HTML output file doc/sky130_ak_ip__cmos_vref.html
no datasheet_anno, so there are no results to save.
